ELMER SOLVER (v 9.0) STARTED AT: 2026/05/01 19:57:25
ELMER SOLVER (v 9.0) STARTED AT: 2026/05/01 19:57:25
ELMER SOLVER (v 9.0) STARTED AT: 2026/05/01 19:57:25
ELMER SOLVER (v 9.0) STARTED AT: 2026/05/01 19:57:25
ELMER SOLVER (v 9.0) STARTED AT: 2026/05/01 19:57:25
ELMER SOLVER (v 9.0) STARTED AT: 2026/05/01 19:57:25
ELMER SOLVER (v 9.0) STARTED AT: 2026/05/01 19:57:25
ELMER SOLVER (v 9.0) STARTED AT: 2026/05/01 19:57:25
ELMER SOLVER (v 9.0) STARTED AT: 2026/05/01 19:57:25
ELMER SOLVER (v 9.0) STARTED AT: 2026/05/01 19:57:25
ELMER SOLVER (v 9.0) STARTED AT: 2026/05/01 19:57:25
ELMER SOLVER (v 9.0) STARTED AT: 2026/05/01 19:57:25
ELMER SOLVER (v 9.0) STARTED AT: 2026/05/01 19:57:25
ELMER SOLVER (v 9.0) STARTED AT: 2026/05/01 19:57:25
ELMER SOLVER (v 9.0) STARTED AT: 2026/05/01 19:57:25
ELMER SOLVER (v 9.0) STARTED AT: 2026/05/01 19:57:25
ELMER SOLVER (v 9.0) STARTED AT: 2026/05/01 19:57:25
ELMER SOLVER (v 9.0) STARTED AT: 2026/05/01 19:57:25
ELMER SOLVER (v 9.0) STARTED AT: 2026/05/01 19:57:25
ELMER SOLVER (v 9.0) STARTED AT: 2026/05/01 19:57:25
ParCommInit: ParCommInit: Initialize #PEs: 20
ParCommInit: Initialize #PEs: 20
ParCommInit: Initialize #PEs: 20
Initialize #PEs: 20
MAIN: 
MAIN: =============================================================
MAIN: ElmerSolver finite element software, Welcome!
MAIN: This program is free software licensed under (L)GPL
MAIN: Copyright 1st April 1995 - , CSC - IT Center for Science Ltd.
MAIN: Webpage http://www.csc.fi/elmer, Email elmeradm@csc.fi
MAIN: Version: 9.0 (Rev: 094910a, Compiled: 2025-11-28)
MAIN:  Running in parallel using 20 tasks.
MAIN:  Running with just one thread per task.
MAIN: =============================================================
OpenIncludeFile: Trying to include file: "HMB_circuit.definition"
MAIN: 
MAIN: 
MAIN: -------------------------------------
MAIN: Reading Model: P1low.sif
LoadInputFile: Scanning input file: P1low.sif
LoadInputFile: Scanning only size info
LoadInputFile: First time visiting
LoadInputFile: Reading base load of sif file
OpenIncludeFile: Trying to include file: "HMB_circuit.definition"
LoadInputFile: Loading input file: P1low.sif
LoadInputFile: Reading base load of sif file
OpenIncludeFile: Trying to include file: "HMB_circuit.definition"
CheckKeyword:  Unlisted keyword: [coil use w vector] in section: [component 1]
CheckKeyword:  Unlisted keyword: [w vector variable name] in section: [component 1]
CheckKeyword:  Unlisted keyword: [electrode area] in section: [component 1]
CheckKeyword:  Unlisted keyword: [i1_source] in section: [body force 1]
CheckKeyword:  Unlisted keyword: [save coil set] in section: [solver 2]
CheckKeyword:  Unlisted keyword: [save coil index] in section: [solver 2]
CheckKeyword:  Unlisted keyword: [single coil cut] in section: [solver 2]
LoadInputFile: Number of BCs: 1
LoadInputFile: Number of Body Forces: 3
LoadInputFile: Number of Initial Conditions: 0
LoadInputFile: Number of Materials: 4
LoadInputFile: Number of Equations: 2
LoadInputFile: Number of Solvers: 5
LoadInputFile: Number of Bodies: 6
ListTagKeywords: Setting weight for keywords!
ListTagKeywords: No parameters width suffix: normalize by area
ListTagKeywords: Setting weight for keywords!
ListTagKeywords: No parameters width suffix: normalize by volume
Loading user function library: [CircuitsAndDynamics]...[CircuitsAndDynamics_Init0]
Loading user function library: [CircuitsAndDynamics]...[CircuitsAndDynamics_Init0]
Loading user function library: [CoilSolver]...[CoilSolver_Init0]
Loading user function library: [CoilSolver]...[CoilSolver_Init0]
Loading user function library: [MagnetoDynamics]...[WhitneyAVSolver_Init0]
WhitneyAVSolver_Init0: Setting element type to: "n:1 e:1 -brick b:3 -quad_face b:2"
Loading user function library: [MagnetoDynamics]...[MagnetoDynamicsCalcFields_Init0]
ElmerAsciiMesh: Base mesh name: ./mesh
PermuteNodeNumbering: Performing node mapping
MapBodiesAndBCs: Minimum initial body index: 1
MapBodiesAndBCs: Maximum initial body index: 30
MapBodiesAndBCs: Minimum initial boundary index: 4
MapBodiesAndBCs: Maximum initial boundary index: 65
SParFaceNumbering: Elapsed REAL time:     2.1722 (s)
SParEdgeNumbering: Elapsed REAL time:    10.3282 (s)
ParallelNonNodal: Elapsed REAL time:    12.5287 (s)
LoadMesh: Elapsed REAL time:    14.9247 (s)
MeshStabParams: Computing stabilization parameters
MeshStabParams: Elapsed REAL time:     0.0435 (s)
CompleteModelKeywords: Created "Master Bodies" for coil of size 1
MAIN: -------------------------------------
Loading user function library: [CircuitsAndDynamics]...[CircuitsAndDynamics_Init]
Loading user function library: [CircuitsAndDynamics]...[CircuitsAndDynamics_bulk]
Loading user function library: [CircuitsAndDynamics]...[CircuitsAndDynamics_bulk]
Loading user function library: [CircuitsAndDynamics]...[CircuitsAndDynamics]
Loading user function library: [CoilSolver]...[CoilSolver_Init]
CoilSolver_int: Computing elemental field as only that can be fixed!
Loading user function library: [CoilSolver]...[CoilSolver_bulk]
Loading user function library: [CoilSolver]...[CoilSolver_bulk]
Loading user function library: [CoilSolver]...[CoilSolver]
OptimizeBandwidth: ---------------------------------------------------------
OptimizeBandwidth: Computing matrix structure for: coilsolver
OptimizeBandwidth: Initial bandwidth for coilsolver: 817
OptimizeBandwidth: Optimized bandwidth for coilsolver: 55
OptimizeBandwidth: ---------------------------------------------------------
Loading user function library: [MagnetoDynamics]...[WhitneyAVSolver_Init]
Loading user function library: [MagnetoDynamics]...[WhitneyAVSolver_bulk]
Loading user function library: [MagnetoDynamics]...[WhitneyAVSolver_bulk]
Loading user function library: [MagnetoDynamics]...[WhitneyAVSolver]
OptimizeBandwidth: ---------------------------------------------------------
OptimizeBandwidth: Computing matrix structure for: mgdynamics
OptimizeBandwidth: Initial bandwidth for mgdynamics: 355668
OptimizeBandwidth: Optimized bandwidth for mgdynamics: 19468
OptimizeBandwidth: ---------------------------------------------------------
Loading user function library: [MagnetoDynamics]...[MagnetoDynamicsCalcFields_Init]
Loading user function library: [MagnetoDynamics]...[MagnetoDynamicsCalcFields_bulk]
Loading user function library: [MagnetoDynamics]...[MagnetoDynamicsCalcFields_bulk]
Loading user function library: [MagnetoDynamics]...[MagnetoDynamicsCalcFields]
WARNING:: AddEquationBasics: Solver 5 may require "Procedure" to operate!
WARNING:: AddEquationBasics: Solver 5 may require "Procedure" to operate!
WARNING:: AddEquationBasics: Solver 5 may require "Procedure" to operate!
WARNING:: AddEquationBasics: Solver 5 may require "Procedure" to operate!
OptimizeBandwidth: ---------------------------------------------------------
OptimizeBandwidth: Computing matrix structure for: mgdynpost
OptimizeBandwidth: Initial bandwidth for mgdynpost: 45813
WARNING:: AddEquationBasics: Solver 5 may require "Procedure" to operate!
WARNING:: AddEquationBasics: Solver 5 may require "Procedure" to operate!
WARNING:: AddEquationBasics: Solver 5 may require "Procedure" to operate!
OptimizeBandwidth: Optimized bandwidth for mgdynpost: 1998
OptimizeBandwidth: ---------------------------------------------------------
WARNING:: AddEquationBasics: Solver 5 may require "Procedure" to operate!
WARNING:: AddEquationBasics: Solver 5 may require "Procedure" to operate!
MAIN: Number of timesteps to be saved: 2
WARNING:: AddEquationBasics: Solver 5 may require "Procedure" to operate!
WARNING:: AddEquationBasics: Solver 5 may require "Procedure" to operate!
WARNING:: AddEquationBasics: Solver 5 may require "Procedure" to operate!
WARNING:: AddEquationBasics: Solver 5 may require "Procedure" to operate!
WARNING:: AddEquationBasics: Solver 5 may require "Procedure" to operate!
WARNING:: AddEquationBasics: Solver 5 may require "Procedure" to operate!
WARNING:: AddEquationBasics: Solver 5 may require "Procedure" to operate!
WARNING:: AddEquationBasics: Solver 5 may require "Procedure" to operate!
WARNING:: AddEquationBasics: Solver 5 may require "Procedure" to operate!
WARNING:: AddEquationBasics: Solver 5 may require "Procedure" to operate!
WARNING:: AddEquationBasics: Solver 5 may require "Procedure" to operate!
CoilSolver: --------------------------------------
CoilSolver: Solving current distribution in a coil
CoilSolver: --------------------------------------
CoilSolver: Assuming that all coils are closed!
CoilSolver: Saving elemental coil index to variable >CoilIndex e<
CoilSolver: Treating coil in Component: 1
CoilSolver: Coil volume:  7.5168E-06
CoilSolver: Coil center:  5.3698E-11  6.7094E-10  5.7000E-03
DefineCoilParameters: Fitting the coil by maximizing inertia
CoilSolver: Assuming coil to be flat i.e. axis has maximum inertia
CoilSolver: Coil axis normal: -4.6198E-08  2.5198E-08  1.0000E+00
CoilSolver: Choosing fixing nodes for set: 1
CoilSolver: Continuing after parallel reduction: 379939
CoilSolver: Choosing fixing nodes for set: 2
CoilSolver: Continuing after parallel reduction: 494408
CoilSolver: Coil system consists of 1 coils
CoilSolver: Set1 : 448 +nodes and 453 -nodes
CoilSolver: Set2 : 475 +nodes and 452 -nodes
CoilSolver: Computing the dummy potential field
CutInterfaceConnections: Number of connections cut: 3196
EnforceDirichletConditions: Dirichlet conditions enforced for dofs: 901
SplittedMatrix: Elapsed REAL time:     0.0028 (s)
IterSolver: "Linear System GCR Restart" not given, setting it to 200
CRS_IncompleteLU: ILU(1) (Real), Performing Factorization:
CRS_IncompleteLU: ILU(1) (Real), NOF nonzeros:      9527
CRS_IncompleteLU: ILU(1) (Real), filling (%) :       152
CRS_IncompleteLU: ILU(1) (Real), Factorization time (s):     0.00
   gcr:     1  0.4096E-01  0.1002E+01
   gcr:     2  0.1797E-01  0.3693E-01
   gcr:     3  0.1435E-01  0.1084E-01
   gcr:     4  0.1299E-01  0.6139E-02
   gcr:     5  0.1110E-01  0.6759E-02
   gcr:     6  0.8388E-02  0.7294E-02
   gcr:     7  0.6519E-02  0.5296E-02
   gcr:     8  0.5564E-02  0.3407E-02
   gcr:     9  0.5014E-02  0.2421E-02
   gcr:    10  0.4490E-02  0.2239E-02
   gcr:    11  0.3935E-02  0.2169E-02
   gcr:    12  0.3519E-02  0.1767E-02
   gcr:    13  0.3161E-02  0.1551E-02
   gcr:    14  0.2851E-02  0.1370E-02
   gcr:    15  0.2603E-02  0.1167E-02
   gcr:    16  0.2319E-02  0.1186E-02
   gcr:    17  0.2098E-02  0.9905E-03
   gcr:    18  0.1900E-02  0.8923E-03
   gcr:    19  0.1690E-02  0.8724E-03
   gcr:    20  0.1498E-02  0.7838E-03
   gcr:    21  0.1363E-02  0.6246E-03
   gcr:    22  0.1250E-02  0.5431E-03
   gcr:    23  0.1150E-02  0.4936E-03
   gcr:    24  0.1072E-02  0.4174E-03
   gcr:    25  0.9909E-03  0.4094E-03
   gcr:    26  0.9158E-03  0.3797E-03
   gcr:    27  0.8522E-03  0.3362E-03
   gcr:    28  0.8002E-03  0.2940E-03
   gcr:    29  0.7749E-03  0.2003E-03
   gcr:    30  0.7595E-03  0.1542E-03
   gcr:    31  0.7476E-03  0.1346E-03
   gcr:    32  0.7329E-03  0.1481E-03
   gcr:    33  0.7113E-03  0.1773E-03
   gcr:    34  0.6850E-03  0.1920E-03
   gcr:    35  0.6566E-03  0.1961E-03
   gcr:    36  0.6267E-03  0.1965E-03
   gcr:    37  0.5941E-03  0.2001E-03
   gcr:    38  0.5566E-03  0.2083E-03
   gcr:    39  0.5257E-03  0.1834E-03
   gcr:    40  0.5045E-03  0.1483E-03
   gcr:    41  0.4886E-03  0.1261E-03
   gcr:    42  0.4770E-03  0.1063E-03
   gcr:    43  0.4689E-03  0.8782E-04
   gcr:    44  0.4597E-03  0.9259E-04
   gcr:    45  0.4486E-03  0.1011E-03
   gcr:    46  0.4351E-03  0.1095E-03
   gcr:    47  0.4196E-03  0.1153E-03
   gcr:    48  0.4050E-03  0.1101E-03
   gcr:    49  0.3921E-03  0.1019E-03
   gcr:    50  0.3807E-03  0.9378E-04
   gcr:    51  0.3695E-03  0.9221E-04
   gcr:    52  0.3570E-03  0.9558E-04
   gcr:    53  0.3473E-03  0.8301E-04
   gcr:    54  0.3388E-03  0.7642E-04
   gcr:    55  0.3311E-03  0.7222E-04
   gcr:    56  0.3235E-03  0.7052E-04
   gcr:    57  0.3166E-03  0.6680E-04
   gcr:    58  0.3094E-03  0.6744E-04
   gcr:    59  0.3031E-03  0.6242E-04
   gcr:    60  0.2964E-03  0.6357E-04
   gcr:    61  0.2899E-03  0.6173E-04
   gcr:    62  0.2826E-03  0.6469E-04
   gcr:    63  0.2739E-03  0.6986E-04
   gcr:    64  0.2651E-03  0.6922E-04
   gcr:    65  0.2560E-03  0.6922E-04
   gcr:    66  0.2470E-03  0.6747E-04
   gcr:    67  0.2388E-03  0.6326E-04
   gcr:    68  0.2298E-03  0.6511E-04
   gcr:    69  0.2191E-03  0.6963E-04
   gcr:    70  0.2090E-03  0.6572E-04
   gcr:    71  0.2021E-03  0.5342E-04
   gcr:    72  0.1986E-03  0.3788E-04
   gcr:    73  0.1962E-03  0.3095E-04
   gcr:    74  0.1944E-03  0.2639E-04
   gcr:    75  0.1928E-03  0.2452E-04
   gcr:    76  0.1914E-03  0.2395E-04
   gcr:    77  0.1900E-03  0.2297E-04
   gcr:    78  0.1883E-03  0.2534E-04
   gcr:    79  0.1863E-03  0.2737E-04
   gcr:    80  0.1840E-03  0.2964E-04
   gcr:    81  0.1807E-03  0.3442E-04
   gcr:    82  0.1775E-03  0.3419E-04
   gcr:    83  0.1744E-03  0.3329E-04
   gcr:    84  0.1714E-03  0.3192E-04
   gcr:    85  0.1682E-03  0.3325E-04
   gcr:    86  0.1645E-03  0.3541E-04
   gcr:    87  0.1605E-03  0.3582E-04
   gcr:    88  0.1568E-03  0.3464E-04
   gcr:    89  0.1536E-03  0.3138E-04
   gcr:    90  0.1512E-03  0.2735E-04
   gcr:    91  0.1487E-03  0.2737E-04
   gcr:    92  0.1453E-03  0.3193E-04
   gcr:    93  0.1404E-03  0.3750E-04
   gcr:    94  0.1337E-03  0.4279E-04
   gcr:    95  0.1250E-03  0.4754E-04
   gcr:    96  0.1140E-03  0.5146E-04
   gcr:    97  0.1011E-03  0.5292E-04
   gcr:    98  0.8882E-04  0.4847E-04
   gcr:    99  0.7679E-04  0.4478E-04
   gcr:   100  0.6393E-04  0.4267E-04
   gcr:   101  0.5365E-04  0.3488E-04
   gcr:   102  0.4528E-04  0.2888E-04
   gcr:   103  0.3787E-04  0.2489E-04
   gcr:   104  0.3175E-04  0.2071E-04
   gcr:   105  0.2556E-04  0.1890E-04
   gcr:   106  0.2064E-04  0.1512E-04
   gcr:   107  0.1650E-04  0.1244E-04
   gcr:   108  0.1286E-04  0.1037E-04
   gcr:   109  0.9715E-05  0.8450E-05
   gcr:   110  0.6831E-05  0.6929E-05
   gcr:   111  0.4970E-05  0.4702E-05
   gcr:   112  0.3657E-05  0.3377E-05
   gcr:   113  0.2714E-05  0.2458E-05
   gcr:   114  0.2116E-05  0.1705E-05
   gcr:   115  0.1699E-05  0.1266E-05
   gcr:   116  0.1423E-05  0.9315E-06
   gcr:   117  0.1182E-05  0.7936E-06
   gcr:   118  0.9521E-06  0.7032E-06
SolveLinearSystem: Calculating nodal loads for: w
ComputeChange: NS (ITER=1) (NRM,RELC): ( 0.58192429      2.0000000     ) :: coilsolver
CoilSolver: Discrepancy of start and end coil currents:   1.8556E-03
CoilSolver: Initial coil current for coil 1:  4.5744E+04
CoilSolver: Coil potential multiplier:  2.1861E-05
CutInterfaceConnections: Number of connections cut: 3288
EnforceDirichletConditions: Dirichlet conditions enforced for dofs: 927
SplittedMatrix: Elapsed REAL time:     0.0028 (s)
IterSolver: "Linear System GCR Restart" not given, setting it to 200
CRS_IncompleteLU: ILU(1) (Real), Performing Factorization:
CRS_IncompleteLU: ILU(1) (Real), NOF nonzeros:      9527
CRS_IncompleteLU: ILU(1) (Real), filling (%) :       152
CRS_IncompleteLU: ILU(1) (Real), Factorization time (s):     0.00
   gcr:     1  0.3948E-01  0.8172E+00
   gcr:     2  0.1944E-01  0.3474E-01
   gcr:     3  0.1278E-01  0.1481E-01
   gcr:     4  0.1034E-01  0.7594E-02
   gcr:     5  0.8934E-02  0.5270E-02
   gcr:     6  0.7422E-02  0.5029E-02
   gcr:     7  0.5973E-02  0.4455E-02
   gcr:     8  0.5000E-02  0.3304E-02
   gcr:     9  0.4312E-02  0.2558E-02
   gcr:    10  0.3902E-02  0.1857E-02
   gcr:    11  0.3485E-02  0.1775E-02
   gcr:    12  0.3133E-02  0.1543E-02
   gcr:    13  0.2816E-02  0.1389E-02
   gcr:    14  0.2514E-02  0.1282E-02
   gcr:    15  0.2266E-02  0.1101E-02
   gcr:    16  0.2040E-02  0.9979E-03
   gcr:    17  0.1876E-02  0.8088E-03
   gcr:    18  0.1738E-02  0.7156E-03
   gcr:    19  0.1588E-02  0.7141E-03
   gcr:    20  0.1456E-02  0.6393E-03
   gcr:    21  0.1347E-02  0.5604E-03
   gcr:    22  0.1261E-02  0.4782E-03
   gcr:    23  0.1210E-02  0.3574E-03
   gcr:    24  0.1180E-02  0.2737E-03
   gcr:    25  0.1162E-02  0.2075E-03
   gcr:    26  0.1149E-02  0.1737E-03
   gcr:    27  0.1135E-02  0.1811E-03
   gcr:    28  0.1114E-02  0.2208E-03
   gcr:    29  0.1084E-02  0.2595E-03
   gcr:    30  0.1034E-02  0.3265E-03
   gcr:    31  0.9532E-03  0.4063E-03
   gcr:    32  0.8523E-03  0.4315E-03
   gcr:    33  0.7271E-03  0.4496E-03
   gcr:    34  0.6133E-03  0.3949E-03
   gcr:    35  0.5322E-03  0.3082E-03
   gcr:    36  0.4639E-03  0.2638E-03
   gcr:    37  0.4022E-03  0.2338E-03
   gcr:    38  0.3403E-03  0.2167E-03
   gcr:    39  0.2865E-03  0.1857E-03
   gcr:    40  0.2444E-03  0.1512E-03
   gcr:    41  0.2117E-03  0.1235E-03
   gcr:    42  0.1849E-03  0.1042E-03
   gcr:    43  0.1672E-03  0.7978E-04
   gcr:    44  0.1556E-03  0.6211E-04
   gcr:    45  0.1480E-03  0.4839E-04
   gcr:    46  0.1407E-03  0.4646E-04
   gcr:    47  0.1331E-03  0.4627E-04
   gcr:    48  0.1241E-03  0.4846E-04
   gcr:    49  0.1155E-03  0.4588E-04
   gcr:    50  0.1073E-03  0.4325E-04
   gcr:    51  0.9953E-04  0.4059E-04
   gcr:    52  0.9265E-04  0.3677E-04
   gcr:    53  0.8467E-04  0.3803E-04
   gcr:    54  0.7521E-04  0.3931E-04
   gcr:    55  0.6550E-04  0.3739E-04
   gcr:    56  0.5609E-04  0.3420E-04
   gcr:    57  0.4794E-04  0.2944E-04
   gcr:    58  0.4230E-04  0.2280E-04
   gcr:    59  0.3815E-04  0.1847E-04
   gcr:    60  0.3517E-04  0.1496E-04
   gcr:    61  0.3280E-04  0.1283E-04
   gcr:    62  0.3109E-04  0.1058E-04
   gcr:    63  0.2979E-04  0.8989E-05
   gcr:    64  0.2879E-04  0.7746E-05
   gcr:    65  0.2792E-04  0.7090E-05
   gcr:    66  0.2685E-04  0.7735E-05
   gcr:    67  0.2566E-04  0.7984E-05
   gcr:    68  0.2440E-04  0.8051E-05
   gcr:    69  0.2311E-04  0.7916E-05
   gcr:    70  0.2182E-04  0.7689E-05
   gcr:    71  0.2050E-04  0.7549E-05
   gcr:    72  0.1925E-04  0.7122E-05
   gcr:    73  0.1811E-04  0.6622E-05
   gcr:    74  0.1716E-04  0.5847E-05
   gcr:    75  0.1636E-04  0.5226E-05
   gcr:    76  0.1570E-04  0.4660E-05
   gcr:    77  0.1499E-04  0.4711E-05
   gcr:    78  0.1439E-04  0.4271E-05
   gcr:    79  0.1380E-04  0.4116E-05
   gcr:    80  0.1326E-04  0.3867E-05
   gcr:    81  0.1280E-04  0.3483E-05
   gcr:    82  0.1247E-04  0.2944E-05
   gcr:    83  0.1223E-04  0.2424E-05
   gcr:    84  0.1206E-04  0.2056E-05
   gcr:    85  0.1191E-04  0.1950E-05
   gcr:    86  0.1176E-04  0.1883E-05
   gcr:    87  0.1163E-04  0.1796E-05
   gcr:    88  0.1151E-04  0.1654E-05
   gcr:    89  0.1140E-04  0.1626E-05
   gcr:    90  0.1127E-04  0.1741E-05
   gcr:    91  0.1113E-04  0.1739E-05
   gcr:    92  0.1101E-04  0.1664E-05
   gcr:    93  0.1090E-04  0.1612E-05
   gcr:    94  0.1077E-04  0.1670E-05
   gcr:    95  0.1068E-04  0.1438E-05
   gcr:    96  0.1060E-04  0.1303E-05
   gcr:    97  0.1051E-04  0.1345E-05
   gcr:    98  0.1040E-04  0.1591E-05
   gcr:    99  0.1021E-04  0.2006E-05
   gcr:   100  0.9924E-05  0.2407E-05
   gcr:   101  0.9536E-05  0.2776E-05
   gcr:   102  0.9106E-05  0.2863E-05
   gcr:   103  0.8643E-05  0.2901E-05
   gcr:   104  0.8160E-05  0.2879E-05
   gcr:   105  0.7590E-05  0.3029E-05
   gcr:   106  0.6871E-05  0.3261E-05
   gcr:   107  0.5974E-05  0.3431E-05
   gcr:   108  0.4973E-05  0.3348E-05
   gcr:   109  0.4033E-05  0.2943E-05
   gcr:   110  0.3302E-05  0.2341E-05
   gcr:   111  0.2740E-05  0.1862E-05
   gcr:   112  0.2240E-05  0.1596E-05
   gcr:   113  0.1804E-05  0.1342E-05
   gcr:   114  0.1449E-05  0.1088E-05
   gcr:   115  0.1186E-05  0.8412E-06
   gcr:   116  0.9790E-06  0.6765E-06
SolveLinearSystem: Calculating nodal loads for: w
ComputeChange: NS (ITER=2) (NRM,RELC): ( 0.57992483     0.34418638E-02 ) :: coilsolver
CoilSolver: Discrepancy of start and end coil currents:   2.4999E-03
CoilSolver: Initial coil current for coil 1:  4.5772E+04
CoilSolver: Coil potential multiplier:  2.1847E-05
CoilSolver: Computing current component: 1
SplittedMatrix: Elapsed REAL time:     0.0028 (s)
IterSolver: "Linear System GCR Restart" not given, setting it to 200
CRS_IncompleteLU: ILU(1) (Real), Performing Factorization:
CRS_IncompleteLU: ILU(1) (Real), NOF nonzeros:      9527
CRS_IncompleteLU: ILU(1) (Real), filling (%) :       152
CRS_IncompleteLU: ILU(1) (Real), Factorization time (s):     0.00
   gcr:     1  0.8783E-01  0.1015E+01
   gcr:     2  0.4858E-02  0.8940E-01
   gcr:     3  0.1236E-02  0.4790E-02
   gcr:     4  0.2329E-03  0.1237E-02
   gcr:     5  0.5930E-04  0.2296E-03
   gcr:     6  0.1237E-04  0.5912E-04
   gcr:     7  0.2983E-05  0.1224E-04
   gcr:     8  0.6648E-06  0.2964E-05
CoilSolver: Computing current component: 2
SplittedMatrix: Elapsed REAL time:     0.0028 (s)
IterSolver: "Linear System GCR Restart" not given, setting it to 200
CRS_IncompleteLU: ILU(1) (Real), Performing Factorization:
CRS_IncompleteLU: ILU(1) (Real), NOF nonzeros:      9527
CRS_IncompleteLU: ILU(1) (Real), filling (%) :       152
CRS_IncompleteLU: ILU(1) (Real), Factorization time (s):     0.00
   gcr:     1  0.1210E+00  0.1432E+01
   gcr:     2  0.6794E-02  0.1228E+00
   gcr:     3  0.1762E-02  0.6671E-02
   gcr:     4  0.3453E-03  0.1757E-02
   gcr:     5  0.8983E-04  0.3390E-03
   gcr:     6  0.1875E-04  0.8931E-04
   gcr:     7  0.4588E-05  0.1848E-04
   gcr:     8  0.1026E-05  0.4547E-05
   gcr:     9  0.2509E-06  0.1012E-05
CoilSolver: Computing current component: 3
SplittedMatrix: Elapsed REAL time:     0.0028 (s)
IterSolver: "Linear System GCR Restart" not given, setting it to 200
CRS_IncompleteLU: ILU(1) (Real), Performing Factorization:
CRS_IncompleteLU: ILU(1) (Real), NOF nonzeros:      9527
CRS_IncompleteLU: ILU(1) (Real), filling (%) :       152
CRS_IncompleteLU: ILU(1) (Real), Factorization time (s):     0.00
   gcr:     1  0.5467E+02  0.6584E+03
   gcr:     2  0.3045E+01  0.5402E+02
   gcr:     3  0.7855E+00  0.2911E+01
   gcr:     4  0.1534E+00  0.7624E+00
   gcr:     5  0.3982E-01  0.1466E+00
   gcr:     6  0.8361E-02  0.3853E-01
   gcr:     7  0.2065E-02  0.8018E-02
   gcr:     8  0.4671E-03  0.1991E-02
   gcr:     9  0.1157E-03  0.4478E-03
   gcr:    10  0.2597E-04  0.1116E-03
   gcr:    11  0.6327E-05  0.2493E-04
   gcr:    12  0.1353E-05  0.6116E-05
   gcr:    13  0.3342E-06  0.1298E-05
CoilSolver: Minimum current components:  -1.6434E+04 -1.6546E+04 -4.0082E+02
CoilSolver: Maximum current components:   1.6397E+04  1.6383E+04  4.2356E+02
CoilSolver: Computing current component: 1
SplittedMatrix: Elapsed REAL time:     0.0028 (s)
IterSolver: "Linear System GCR Restart" not given, setting it to 200
CRS_IncompleteLU: ILU(1) (Real), Performing Factorization:
CRS_IncompleteLU: ILU(1) (Real), NOF nonzeros:      9527
CRS_IncompleteLU: ILU(1) (Real), filling (%) :       152
CRS_IncompleteLU: ILU(1) (Real), Factorization time (s):     0.00
   gcr:     1  0.8783E-01  0.1015E+01
   gcr:     2  0.4859E-02  0.8940E-01
   gcr:     3  0.1236E-02  0.4790E-02
   gcr:     4  0.2329E-03  0.1237E-02
   gcr:     5  0.5931E-04  0.2296E-03
   gcr:     6  0.1237E-04  0.5913E-04
   gcr:     7  0.2983E-05  0.1224E-04
   gcr:     8  0.6649E-06  0.2964E-05
CoilSolver: Computing current component: 2
SplittedMatrix: Elapsed REAL time:     0.0028 (s)
IterSolver: "Linear System GCR Restart" not given, setting it to 200
CRS_IncompleteLU: ILU(1) (Real), Performing Factorization:
CRS_IncompleteLU: ILU(1) (Real), NOF nonzeros:      9527
CRS_IncompleteLU: ILU(1) (Real), filling (%) :       152
CRS_IncompleteLU: ILU(1) (Real), Factorization time (s):     0.00
   gcr:     1  0.1210E+00  0.1432E+01
   gcr:     2  0.6794E-02  0.1228E+00
   gcr:     3  0.1762E-02  0.6671E-02
   gcr:     4  0.3453E-03  0.1757E-02
   gcr:     5  0.8983E-04  0.3390E-03
   gcr:     6  0.1875E-04  0.8931E-04
   gcr:     7  0.4588E-05  0.1848E-04
   gcr:     8  0.1026E-05  0.4547E-05
   gcr:     9  0.2509E-06  0.1012E-05
CoilSolver: Computing current component: 3
SplittedMatrix: Elapsed REAL time:     0.0028 (s)
IterSolver: "Linear System GCR Restart" not given, setting it to 200
CRS_IncompleteLU: ILU(1) (Real), Performing Factorization:
CRS_IncompleteLU: ILU(1) (Real), NOF nonzeros:      9527
CRS_IncompleteLU: ILU(1) (Real), filling (%) :       152
CRS_IncompleteLU: ILU(1) (Real), Factorization time (s):     0.00
   gcr:     1  0.5467E+02  0.6584E+03
   gcr:     2  0.3045E+01  0.5402E+02
   gcr:     3  0.7855E+00  0.2911E+01
   gcr:     4  0.1534E+00  0.7624E+00
   gcr:     5  0.3982E-01  0.1466E+00
   gcr:     6  0.8361E-02  0.3853E-01
   gcr:     7  0.2065E-02  0.8018E-02
   gcr:     8  0.4671E-03  0.1991E-02
   gcr:     9  0.1157E-03  0.4478E-03
   gcr:    10  0.2597E-04  0.1116E-03
   gcr:    11  0.6327E-05  0.2493E-04
   gcr:    12  0.1353E-05  0.6116E-05
   gcr:    13  0.3342E-06  0.1298E-05
CoilSolver: Minimum current components:  -1.6434E+04 -1.6546E+04 -4.0082E+02
CoilSolver: Maximum current components:   1.6397E+04  1.6383E+04  4.2356E+02
CoilSolver: Normalizing current density (as for stranded coil)
CoilSolver: Finding fixing potential for elemental current density!
EnforceDirichletConditions: Dirichlet conditions enforced for dofs: 1
SplittedMatrix: Elapsed REAL time:     0.0028 (s)
IterSolver: "Linear System GCR Restart" not given, setting it to 200
CRS_IncompleteLU: ILU(1) (Real), Performing Factorization:
CRS_IncompleteLU: ILU(1) (Real), NOF nonzeros:      9527
CRS_IncompleteLU: ILU(1) (Real), filling (%) :       152
CRS_IncompleteLU: ILU(1) (Real), Factorization time (s):     0.00
   gcr:     1  0.7918E-01  0.1870E-01
   gcr:     2  0.2438E-01  0.1413E-02
   gcr:     3  0.1597E-01  0.3457E-03
   gcr:     4  0.1376E-01  0.1518E-03
   gcr:     5  0.1267E-01  0.1006E-03
   gcr:     6  0.1110E-01  0.1148E-03
   gcr:     7  0.9098E-02  0.1193E-03
   gcr:     8  0.7347E-02  0.1007E-03
   gcr:     9  0.5892E-02  0.8235E-04
   gcr:    10  0.4603E-02  0.6901E-04
   gcr:    11  0.3580E-02  0.5428E-04
   gcr:    12  0.2765E-02  0.4266E-04
   gcr:    13  0.2130E-02  0.3307E-04
   gcr:    14  0.1608E-02  0.2621E-04
   gcr:    15  0.1221E-02  0.1962E-04
   gcr:    16  0.9322E-03  0.1480E-04
   gcr:    17  0.7296E-03  0.1089E-04
   gcr:    18  0.5836E-03  0.8215E-05
   gcr:    19  0.4663E-03  0.6583E-05
   gcr:    20  0.3731E-03  0.5249E-05
   gcr:    21  0.3045E-03  0.4046E-05
   gcr:    22  0.2555E-03  0.3106E-05
   gcr:    23  0.2195E-03  0.2453E-05
   gcr:    24  0.1917E-03  0.2007E-05
   gcr:    25  0.1707E-03  0.1637E-05
   gcr:    26  0.1527E-03  0.1430E-05
   gcr:    27  0.1373E-03  0.1257E-05
   gcr:    28  0.1227E-03  0.1154E-05
   gcr:    29  0.1092E-03  0.1048E-05
   gcr:    30  0.9584E-04  0.9828E-06
   gcr:    31  0.8280E-04  0.9054E-06
   gcr:    32  0.7210E-04  0.7641E-06
   gcr:    33  0.6395E-04  0.6245E-06
   gcr:    34  0.5817E-04  0.4986E-06
   gcr:    35  0.5376E-04  0.4169E-06
   gcr:    36  0.4960E-04  0.3890E-06
   gcr:    37  0.4569E-04  0.3618E-06
   gcr:    38  0.4205E-04  0.3353E-06
   gcr:    39  0.3858E-04  0.3138E-06
   gcr:    40  0.3506E-04  0.3024E-06
   gcr:    41  0.3149E-04  0.2890E-06
   gcr:    42  0.2826E-04  0.2604E-06
   gcr:    43  0.2559E-04  0.2250E-06
   gcr:    44  0.2341E-04  0.1941E-06
   gcr:    45  0.2144E-04  0.1761E-06
   gcr:    46  0.1976E-04  0.1563E-06
   gcr:    47  0.1855E-04  0.1274E-06
   gcr:    48  0.1770E-04  0.1045E-06
   gcr:    49  0.1702E-04  0.9089E-07
   gcr:    50  0.1641E-04  0.8495E-07
   gcr:    51  0.1576E-04  0.8577E-07
   gcr:    52  0.1515E-04  0.8129E-07
   gcr:    53  0.1463E-04  0.7394E-07
   gcr:    54  0.1422E-04  0.6435E-07
   gcr:    55  0.1394E-04  0.5326E-07
   gcr:    56  0.1374E-04  0.4334E-07
   gcr:    57  0.1363E-04  0.3370E-07
   gcr:    58  0.1357E-04  0.2305E-07
   gcr:    59  0.1353E-04  0.2034E-07
   gcr:    60  0.1347E-04  0.2264E-07
   gcr:    61  0.1340E-04  0.2587E-07
   gcr:    62  0.1331E-04  0.3008E-07
   gcr:    63  0.1319E-04  0.3366E-07
   gcr:    64  0.1302E-04  0.3933E-07
   gcr:    65  0.1278E-04  0.4621E-07
   gcr:    66  0.1243E-04  0.5564E-07
   gcr:    67  0.1211E-04  0.5317E-07
   gcr:    68  0.1180E-04  0.5077E-07
   gcr:    69  0.1160E-04  0.4042E-07
   gcr:    70  0.1149E-04  0.3060E-07
   gcr:    71  0.1143E-04  0.2155E-07
   gcr:    72  0.1140E-04  0.1544E-07
   gcr:    73  0.1138E-04  0.1187E-07
   gcr:    74  0.1137E-04  0.1098E-07
   gcr:    75  0.1135E-04  0.1271E-07
   gcr:    76  0.1133E-04  0.1287E-07
   gcr:    77  0.1130E-04  0.1521E-07
   gcr:    78  0.1127E-04  0.1546E-07
   gcr:    79  0.1122E-04  0.1879E-07
   gcr:    80  0.1117E-04  0.2055E-07
   gcr:    81  0.1112E-04  0.1907E-07
   gcr:    82  0.1108E-04  0.1870E-07
   gcr:    83  0.1104E-04  0.1794E-07
   gcr:    84  0.1101E-04  0.1414E-07
   gcr:    85  0.1099E-04  0.1290E-07
   gcr:    86  0.1098E-04  0.8524E-08
   gcr:    87  0.1098E-04  0.5367E-08
   gcr:    88  0.1097E-04  0.3462E-08
   gcr:    89  0.1097E-04 -0.2659E-09
   gcr:    90  0.1097E-04  0.2088E-08
   gcr:    91  0.1097E-04  0.1596E-08
   gcr:    92  0.1097E-04 -0.7881E-09
   gcr:    93  0.1097E-04  0.3982E-08
   gcr:    94  0.1096E-04  0.6782E-08
   gcr:    95  0.1096E-04  0.5814E-08
   gcr:    96  0.1096E-04  0.3229E-08
   gcr:    97  0.1096E-04 -0.2979E-10
   gcr:    98  0.1096E-04  0.2704E-08
   gcr:    99  0.1096E-04  0.3578E-08
   gcr:   100  0.1096E-04  0.1529E-08
   gcr:   101  0.1096E-04 -0.4044E-09
   gcr:   102  0.1096E-04  0.1922E-08
   gcr:   103  0.1095E-04  0.5809E-08
   gcr:   104  0.1094E-04  0.8934E-08
   gcr:   105  0.1091E-04  0.1419E-07
   gcr:   106  0.1085E-04  0.2240E-07
   gcr:   107  0.1074E-04  0.2919E-07
   gcr:   108  0.1055E-04  0.3771E-07
   gcr:   109  0.1032E-04  0.4103E-07
   gcr:   110  0.1003E-04  0.4516E-07
   gcr:   111  0.9688E-05  0.4894E-07
   gcr:   112  0.9243E-05  0.5443E-07
   gcr:   113  0.8698E-05  0.5870E-07
   gcr:   114  0.8067E-05  0.6099E-07
   gcr:   115  0.7371E-05  0.6150E-07
   gcr:   116  0.6611E-05  0.6117E-07
   gcr:   117  0.5872E-05  0.5696E-07
   gcr:   118  0.5242E-05  0.4967E-07
   gcr:   119  0.4765E-05  0.4098E-07
   gcr:   120  0.4375E-05  0.3540E-07
   gcr:   121  0.4034E-05  0.3180E-07
   gcr:   122  0.3759E-05  0.2744E-07
   gcr:   123  0.3555E-05  0.2290E-07
   gcr:   124  0.3391E-05  0.2006E-07
   gcr:   125  0.3242E-05  0.1867E-07
   gcr:   126  0.3125E-05  0.1617E-07
   gcr:   127  0.3036E-05  0.1391E-07
   gcr:   128  0.2965E-05  0.1223E-07
   gcr:   129  0.2898E-05  0.1175E-07
   gcr:   130  0.2823E-05  0.1226E-07
   gcr:   131  0.2740E-05  0.1276E-07
   gcr:   132  0.2651E-05  0.1299E-07
   gcr:   133  0.2557E-05  0.1315E-07
   gcr:   134  0.2438E-05  0.1446E-07
   gcr:   135  0.2269E-05  0.1674E-07
   gcr:   136  0.2026E-05  0.1915E-07
   gcr:   137  0.1769E-05  0.1856E-07
   gcr:   138  0.1539E-05  0.1635E-07
   gcr:   139  0.1311E-05  0.1511E-07
   gcr:   140  0.1096E-05  0.1350E-07
   gcr:   141  0.8997E-06  0.1175E-07
SolveLinearSystem: Calculating nodal loads for: w
CoilSolver: Fixing elemental current density to be divergence free!
CoilSolver: All done
CoilSolver: --------------------------------------
MAIN: 
MAIN: -------------------------------------
MAIN: Time: 1/1:   1.000E-03
MAIN: -------------------------------------
MAIN: 
CircuitsAndDynamics: Initializing electric circuits for transient simulation
AddComponentsToBodyList: "Body 5" associated to "Component 1"
CircuitsAndDynamics: Circuit equations associated with solver index: 3
CircuitsAndDynamics: Initializing circuit 1 with 5 variables!
AddComponentEquationsAndCouplings: Using coil resistance for component 1
GetWPotentialVar: Using gradient of field to define direction: w
List_ToListMatrix: Matrix format changed from CRS to List
WhitneyAVSolver: 
WhitneyAVSolver: -------------------------------------------------
WhitneyAVSolver: Solving transient AV equations with edge elements
WhitneyAVSolver: Using Piola Transformed element basis functions
WARNING:: GetPermittivity: Permittivity not defined in material, defaulting to that of vacuum
WARNING:: GetPermittivity: Permittivity not defined in material, defaulting to that of vacuum
WARNING:: GetPermittivity: Permittivity not defined in material, defaulting to that of vacuum
WARNING:: GetPermittivity: Permittivity not defined in material, defaulting to that of vacuum
WARNING:: GetPermittivity: Permittivity not defined in material, defaulting to that of vacuum
WARNING:: GetPermittivity: Permittivity not defined in material, defaulting to that of vacuum
WARNING:: GetPermittivity: Permittivity not defined in material, defaulting to that of vacuum
WARNING:: GetPermittivity: Permittivity not defined in material, defaulting to that of vacuum
WARNING:: GetPermittivity: Permittivity not defined in material, defaulting to that of vacuum
WARNING:: GetPermittivity: Permittivity not defined in material, defaulting to that of vacuum
WARNING:: GetPermittivity: Permittivity not defined in material, defaulting to that of vacuum
WARNING:: GetPermittivity: Permittivity not defined in material, defaulting to that of vacuum
WARNING:: GetPermittivity: Permittivity not defined in material, defaulting to that of vacuum
WARNING:: GetPermittivity: Permittivity not defined in material, defaulting to that of vacuum
WARNING:: GetPermittivity: Permittivity not defined in material, defaulting to that of vacuum
WARNING:: GetPermittivity: Permittivity not defined in material, defaulting to that of vacuum
WARNING:: GetPermittivity: Permittivity not defined in material, defaulting to that of vacuum
WARNING:: GetPermittivity: Permittivity not defined in material, defaulting to that of vacuum
WARNING:: GetPermittivity: Permittivity not defined in material, defaulting to that of vacuum
WARNING:: GetPermittivity: Permittivity not defined in material, defaulting to that of vacuum
MGDynAssembly: Elapsed REAL time:     7.2527 (s)
EnforceDirichletConditions: Dirichlet conditions enforced for dofs: 34440
SolveWithLinearRestriction: Collection matrix creation time (CPU,REAL):     0.80    0.88 (s)
List_ToListMatrix: Matrix format changed from CRS to List
SplittedMatrix: Elapsed REAL time:     1.8805 (s)
CRS_IncompleteLU: ILU(0) (Real), Performing Factorization:
CRS_IncompleteLU: ILU(0) (Real), NOF nonzeros:   8976106
CRS_IncompleteLU: ILU(0) (Real), filling (%) :       100
CRS_IncompleteLU: ILU(0) (Real), Factorization time (s):     0.22
   gcr:    30  0.7956E-02  0.2641E-02
   gcr:    60  0.1561E-02  0.6934E-03
   gcr:    90  0.1549E-03  0.6836E-04
   gcr:   120  0.2781E-04  0.1383E-04
   gcr:   150  0.1172E-04  0.3273E-05
   gcr:   180  0.4312E-05  0.1073E-05
   gcr:   210  0.2212E-05 -0.1613E-07
   gcr:   240  0.1203E-05  0.4170E-06
   gcr:   270  0.3932E-06  0.1214E-06
   gcr:   300  0.1222E-06  0.4083E-07
   gcr:   330  0.5516E-07  0.8260E-08
   gcr:   360  0.2317E-07  0.6336E-08
ComputeChange: NS (ITER=1) (NRM,RELC): ( 0.30626724E-06  2.0000000     ) :: mgdynamics
WARNING:: SolveEquations: No routine related to solver!
WARNING:: SolveEquations: No routine related to solver!
WARNING:: SolveEquations: No routine related to solver!
WARNING:: SolveEquations: No routine related to solver!
WARNING:: SolveEquations: No routine related to solver!
WARNING:: SolveEquations: No routine related to solver!
WARNING:: SolveEquations: No routine related to solver!
WARNING:: SolveEquations: No routine related to solver!
WARNING:: SolveEquations: No routine related to solver!
WARNING:: SolveEquations: No routine related to solver!
WARNING:: SolveEquations: No routine related to solver!
WARNING:: SolveEquations: No routine related to solver!
WARNING:: SolveEquations: No routine related to solver!
WARNING:: SolveEquations: No routine related to solver!
WARNING:: SolveEquations: No routine related to solver!
WARNING:: SolveEquations: No routine related to solver!
WARNING:: SolveEquations: No routine related to solver!
WARNING:: SolveEquations: No routine related to solver!
WARNING:: SolveEquations: No routine related to solver!
WARNING:: SolveEquations: No routine related to solver!
MagnetoDynamicsCalcFields: ------------------------------
MagnetoDynamicsCalcFields: Computing postprocessed fields
MagnetoDynamicsCalcFields: Using potential variable: av
MagnetoDynamicsCalcFields: Using Piola transformed finite elements
WARNING:: GetPermittivity: Permittivity not defined in material, defaulting to that of vacuum
WARNING:: GetPermittivity: Permittivity not defined in material, defaulting to that of vacuum
WARNING:: GetPermittivity: Permittivity not defined in material, defaulting to that of vacuum
WARNING:: GetPermittivity: Permittivity not defined in material, defaulting to that of vacuum
WARNING:: GetPermittivity: Permittivity not defined in material, defaulting to that of vacuum
WARNING:: GetPermittivity: Permittivity not defined in material, defaulting to that of vacuum
WARNING:: GetPermittivity: Permittivity not defined in material, defaulting to that of vacuum
WARNING:: GetPermittivity: Permittivity not defined in material, defaulting to that of vacuum
WARNING:: GetPermittivity: Permittivity not defined in material, defaulting to that of vacuum
WARNING:: GetPermittivity: Permittivity not defined in material, defaulting to that of vacuum
WARNING:: GetPermittivity: Permittivity not defined in material, defaulting to that of vacuum
WARNING:: GetPermittivity: Permittivity not defined in material, defaulting to that of vacuum
WARNING:: GetPermittivity: Permittivity not defined in material, defaulting to that of vacuum
WARNING:: GetPermittivity: Permittivity not defined in material, defaulting to that of vacuum
WARNING:: GetPermittivity: Permittivity not defined in material, defaulting to that of vacuum
WARNING:: GetPermittivity: Permittivity not defined in material, defaulting to that of vacuum
WARNING:: GetPermittivity: Permittivity not defined in material, defaulting to that of vacuum
WARNING:: GetPermittivity: Permittivity not defined in material, defaulting to that of vacuum
WARNING:: GetPermittivity: Permittivity not defined in material, defaulting to that of vacuum
WARNING:: GetPermittivity: Permittivity not defined in material, defaulting to that of vacuum
MagnetoDynamicsCalcFields: Eddy current power:    9.843148E+01
MagnetoDynamicsCalcFields: ElectroMagnetic Field Energy:    2.115558E+00
ReloadInputFile: Reloading input file
LoadInputFile: Loading input file:
MAIN: *** Elmer Solver: ALL DONE ***
ReleaseMeshFaceTables: Releasing number of faces: 513175
MAIN: The end
SOLVER TOTAL TIME(CPU,REAL):       150.77      152.19
SOLVER TOTAL TIME(CPU,REAL):       150.84      152.19
SOLVER TOTAL TIME(CPU,REAL):       150.75      152.19
ELMER SOLVER FINISHED AT: 2026/05/01 19:59:57
ELMER SOLVER FINISHED AT: 2026/05/01 19:59:57
ELMER SOLVER FINISHED AT: 2026/05/01 19:59:57
