ELMER SOLVER (v 9.0) STARTED AT: 2026/05/01 19:37:20
ELMER SOLVER (v 9.0) STARTED AT: 2026/05/01 19:37:20
ELMER SOLVER (v 9.0) STARTED AT: 2026/05/01 19:37:20
ELMER SOLVER (v 9.0) STARTED AT: 2026/05/01 19:37:20
ELMER SOLVER (v 9.0) STARTED AT: 2026/05/01 19:37:20
ELMER SOLVER (v 9.0) STARTED AT: 2026/05/01 19:37:20
ELMER SOLVER (v 9.0) STARTED AT: 2026/05/01 19:37:20
ELMER SOLVER (v 9.0) STARTED AT: 2026/05/01 19:37:20
ELMER SOLVER (v 9.0) STARTED AT: 2026/05/01 19:37:20
ELMER SOLVER (v 9.0) STARTED AT: 2026/05/01 19:37:20
ELMER SOLVER (v 9.0) STARTED AT: 2026/05/01 19:37:20
ELMER SOLVER (v 9.0) STARTED AT: 2026/05/01 19:37:20
ELMER SOLVER (v 9.0) STARTED AT: 2026/05/01 19:37:20
ELMER SOLVER (v 9.0) STARTED AT: 2026/05/01 19:37:20
ELMER SOLVER (v 9.0) STARTED AT: 2026/05/01 19:37:20
ELMER SOLVER (v 9.0) STARTED AT: 2026/05/01 19:37:20
ELMER SOLVER (v 9.0) STARTED AT: 2026/05/01 19:37:20
ELMER SOLVER (v 9.0) STARTED AT: 2026/05/01 19:37:20
ELMER SOLVER (v 9.0) STARTED AT: 2026/05/01 19:37:20
ELMER SOLVER (v 9.0) STARTED AT: 2026/05/01 19:37:20
ParCommInit: ParCommInit: Initialize #PEs: 20
ParCommInit: Initialize #PEs: 20
ParCommInit: Initialize #PEs: 20
Initialize #PEs: 20
MAIN: 
MAIN: =============================================================
MAIN: ElmerSolver finite element software, Welcome!
MAIN: This program is free software licensed under (L)GPL
MAIN: Copyright 1st April 1995 - , CSC - IT Center for Science Ltd.
MAIN: Webpage http://www.csc.fi/elmer, Email elmeradm@csc.fi
MAIN: Version: 9.0 (Rev: 094910a, Compiled: 2025-11-28)
MAIN:  Running in parallel using 20 tasks.
MAIN:  Running with just one thread per task.
MAIN: =============================================================
OpenIncludeFile: Trying to include file: "HMB_circuit.definition"
MAIN: 
MAIN: 
MAIN: -------------------------------------
MAIN: Reading Model: P1low.sif
LoadInputFile: Scanning input file: P1low.sif
LoadInputFile: Scanning only size info
LoadInputFile: First time visiting
LoadInputFile: Reading base load of sif file
OpenIncludeFile: Trying to include file: "HMB_circuit.definition"
LoadInputFile: Loading input file: P1low.sif
LoadInputFile: Reading base load of sif file
OpenIncludeFile: Trying to include file: "HMB_circuit.definition"
CheckKeyword:  Unlisted keyword: [coil use w vector] in section: [component 1]
CheckKeyword:  Unlisted keyword: [w vector variable name] in section: [component 1]
CheckKeyword:  Unlisted keyword: [electrode area] in section: [component 1]
CheckKeyword:  Unlisted keyword: [i1_source] in section: [body force 1]
CheckKeyword:  Unlisted keyword: [save coil set] in section: [solver 2]
CheckKeyword:  Unlisted keyword: [save coil index] in section: [solver 2]
CheckKeyword:  Unlisted keyword: [single coil cut] in section: [solver 2]
LoadInputFile: Number of BCs: 1
LoadInputFile: Number of Body Forces: 3
LoadInputFile: Number of Initial Conditions: 0
LoadInputFile: Number of Materials: 4
LoadInputFile: Number of Equations: 2
LoadInputFile: Number of Solvers: 5
LoadInputFile: Number of Bodies: 6
ListTagKeywords: Setting weight for keywords!
ListTagKeywords: No parameters width suffix: normalize by area
ListTagKeywords: Setting weight for keywords!
ListTagKeywords: No parameters width suffix: normalize by volume
Loading user function library: [CircuitsAndDynamics]...[CircuitsAndDynamics_Init0]
Loading user function library: [CircuitsAndDynamics]...[CircuitsAndDynamics_Init0]
Loading user function library: [CoilSolver]...[CoilSolver_Init0]
Loading user function library: [CoilSolver]...[CoilSolver_Init0]
Loading user function library: [MagnetoDynamics]...[WhitneyAVSolver_Init0]
WhitneyAVSolver_Init0: Setting element type to: "n:1 e:1 -brick b:3 -quad_face b:2"
Loading user function library: [MagnetoDynamics]...[MagnetoDynamicsCalcFields_Init0]
ElmerAsciiMesh: Base mesh name: ./mesh
PermuteNodeNumbering: Performing node mapping
MapBodiesAndBCs: Minimum initial body index: 20
MapBodiesAndBCs: Maximum initial body index: 30
MapBodiesAndBCs: Minimum initial boundary index: 32
MapBodiesAndBCs: Maximum initial boundary index: 68
SParFaceNumbering: Elapsed REAL time:     0.7376 (s)
SParEdgeNumbering: Elapsed REAL time:     1.6771 (s)
ParallelNonNodal: Elapsed REAL time:     2.4269 (s)
LoadMesh: Elapsed REAL time:     3.4097 (s)
MeshStabParams: Computing stabilization parameters
MeshStabParams: Elapsed REAL time:     0.0176 (s)
CompleteModelKeywords: Created "Master Bodies" for coil of size 1
MAIN: -------------------------------------
Loading user function library: [CircuitsAndDynamics]...[CircuitsAndDynamics_Init]
Loading user function library: [CircuitsAndDynamics]...[CircuitsAndDynamics_bulk]
Loading user function library: [CircuitsAndDynamics]...[CircuitsAndDynamics_bulk]
Loading user function library: [CircuitsAndDynamics]...[CircuitsAndDynamics]
Loading user function library: [CoilSolver]...[CoilSolver_Init]
CoilSolver_int: Computing elemental field as only that can be fixed!
Loading user function library: [CoilSolver]...[CoilSolver_bulk]
Loading user function library: [CoilSolver]...[CoilSolver_bulk]
Loading user function library: [CoilSolver]...[CoilSolver]
OptimizeBandwidth: ---------------------------------------------------------
OptimizeBandwidth: Computing matrix structure for: coilsolver
OptimizeBandwidth: Initial bandwidth for coilsolver: 6310
OptimizeBandwidth: Optimized bandwidth for coilsolver: 548
OptimizeBandwidth: ---------------------------------------------------------
Loading user function library: [MagnetoDynamics]...[WhitneyAVSolver_Init]
Loading user function library: [MagnetoDynamics]...[WhitneyAVSolver_bulk]
Loading user function library: [MagnetoDynamics]...[WhitneyAVSolver_bulk]
Loading user function library: [MagnetoDynamics]...[WhitneyAVSolver]
OptimizeBandwidth: ---------------------------------------------------------
OptimizeBandwidth: Computing matrix structure for: mgdynamics
OptimizeBandwidth: Initial bandwidth for mgdynamics: 145767
OptimizeBandwidth: Optimized bandwidth for mgdynamics: 11181
OptimizeBandwidth: ---------------------------------------------------------
WARNING:: AddEquationBasics: Solver 5 may require "Procedure" to operate!
WARNING:: AddEquationBasics: Solver 5 may require "Procedure" to operate!
WARNING:: AddEquationBasics: Solver 5 may require "Procedure" to operate!
WARNING:: AddEquationBasics: Solver 5 may require "Procedure" to operate!
WARNING:: AddEquationBasics: Solver 5 may require "Procedure" to operate!
WARNING:: AddEquationBasics: Solver 5 may require "Procedure" to operate!
WARNING:: AddEquationBasics: Solver 5 may require "Procedure" to operate!
WARNING:: AddEquationBasics: Solver 5 may require "Procedure" to operate!
Loading user function library: [MagnetoDynamics]...[MagnetoDynamicsCalcFields_Init]
Loading user function library: [MagnetoDynamics]...[MagnetoDynamicsCalcFields_bulk]
Loading user function library: [MagnetoDynamics]...[MagnetoDynamicsCalcFields_bulk]
Loading user function library: [MagnetoDynamics]...[MagnetoDynamicsCalcFields]
WARNING:: AddEquationBasics: Solver 5 may require "Procedure" to operate!
WARNING:: AddEquationBasics: Solver 5 may require "Procedure" to operate!
WARNING:: AddEquationBasics: Solver 5 may require "Procedure" to operate!
WARNING:: AddEquationBasics: Solver 5 may require "Procedure" to operate!
WARNING:: AddEquationBasics: Solver 5 may require "Procedure" to operate!
WARNING:: AddEquationBasics: Solver 5 may require "Procedure" to operate!
WARNING:: AddEquationBasics: Solver 5 may require "Procedure" to operate!
WARNING:: AddEquationBasics: Solver 5 may require "Procedure" to operate!
WARNING:: AddEquationBasics: Solver 5 may require "Procedure" to operate!
WARNING:: AddEquationBasics: Solver 5 may require "Procedure" to operate!
OptimizeBandwidth: ---------------------------------------------------------
OptimizeBandwidth: Computing matrix structure for: mgdynpost
OptimizeBandwidth: Initial bandwidth for mgdynpost: 19128
WARNING:: AddEquationBasics: Solver 5 may require "Procedure" to operate!
OptimizeBandwidth: Optimized bandwidth for mgdynpost: 1318
OptimizeBandwidth: ---------------------------------------------------------
WARNING:: AddEquationBasics: Solver 5 may require "Procedure" to operate!
MAIN: Number of timesteps to be saved: 2
CoilSolver: --------------------------------------
CoilSolver: Solving current distribution in a coil
CoilSolver: --------------------------------------
CoilSolver: Assuming that all coils are closed!
CoilSolver: Saving elemental coil index to variable >CoilIndex e<
CoilSolver: Treating coil in Component: 1
CoilSolver: Coil volume:  7.5168E-06
CoilSolver: Coil center:  1.1659E-09  3.1084E-09  5.7000E-03
DefineCoilParameters: Fitting the coil by maximizing inertia
CoilSolver: Assuming coil to be flat i.e. axis has maximum inertia
CoilSolver: Coil axis normal:  1.4791E-07 -1.3419E-07  1.0000E+00
CoilSolver: Choosing fixing nodes for set: 1
CoilSolver: Continuing after parallel reduction: 488332
CoilSolver: Choosing fixing nodes for set: 2
CoilSolver: Continuing after parallel reduction: 575999
CoilSolver: Coil system consists of 1 coils
CoilSolver: Set1 : 253 +nodes and 249 -nodes
CoilSolver: Set2 : 262 +nodes and 260 -nodes
CoilSolver: Computing the dummy potential field
CutInterfaceConnections: Number of connections cut: 1786
EnforceDirichletConditions: Dirichlet conditions enforced for dofs: 502
SplittedMatrix: Elapsed REAL time:     0.0017 (s)
IterSolver: "Linear System GCR Restart" not given, setting it to 200
CRS_IncompleteLU: ILU(1) (Real), Performing Factorization:
CRS_IncompleteLU: ILU(1) (Real), NOF nonzeros:    142774
CRS_IncompleteLU: ILU(1) (Real), filling (%) :       184
CRS_IncompleteLU: ILU(1) (Real), Factorization time (s):     0.01
   gcr:     1  0.7036E-01  0.1030E+01
   gcr:     2  0.3696E-01  0.6183E-01
   gcr:     3  0.2453E-01  0.2855E-01
   gcr:     4  0.1869E-01  0.1642E-01
   gcr:     5  0.1381E-01  0.1300E-01
   gcr:     6  0.1068E-01  0.9046E-02
   gcr:     7  0.8817E-02  0.6219E-02
   gcr:     8  0.7378E-02  0.4986E-02
   gcr:     9  0.6090E-02  0.4302E-02
   gcr:    10  0.5047E-02  0.3519E-02
   gcr:    11  0.4323E-02  0.2691E-02
   gcr:    12  0.3770E-02  0.2184E-02
   gcr:    13  0.3379E-02  0.1726E-02
   gcr:    14  0.3040E-02  0.1525E-02
   gcr:    15  0.2767E-02  0.1301E-02
   gcr:    16  0.2501E-02  0.1222E-02
   gcr:    17  0.2304E-02  0.1005E-02
   gcr:    18  0.2121E-02  0.9284E-03
   gcr:    19  0.1960E-02  0.8375E-03
   gcr:    20  0.1813E-02  0.7695E-03
   gcr:    21  0.1668E-02  0.7332E-03
   gcr:    22  0.1536E-02  0.6716E-03
   gcr:    23  0.1430E-02  0.5777E-03
   gcr:    24  0.1355E-02  0.4742E-03
   gcr:    25  0.1276E-02  0.4692E-03
   gcr:    26  0.1200E-02  0.4487E-03
   gcr:    27  0.1120E-02  0.4447E-03
   gcr:    28  0.1042E-02  0.4242E-03
   gcr:    29  0.9771E-03  0.3734E-03
   gcr:    30  0.9234E-03  0.3300E-03
   gcr:    31  0.8845E-03  0.2739E-03
   gcr:    32  0.8575E-03  0.2240E-03
   gcr:    33  0.8342E-03  0.2052E-03
   gcr:    34  0.8024E-03  0.2355E-03
   gcr:    35  0.7687E-03  0.2377E-03
   gcr:    36  0.7243E-03  0.2658E-03
   gcr:    37  0.6747E-03  0.2721E-03
   gcr:    38  0.6310E-03  0.2467E-03
   gcr:    39  0.5874E-03  0.2380E-03
   gcr:    40  0.5531E-03  0.2043E-03
   gcr:    41  0.5320E-03  0.1562E-03
   gcr:    42  0.5164E-03  0.1319E-03
   gcr:    43  0.5065E-03  0.1042E-03
   gcr:    44  0.4991E-03  0.8903E-04
   gcr:    45  0.4909E-03  0.9318E-04
   gcr:    46  0.4816E-03  0.9818E-04
   gcr:    47  0.4718E-03  0.9979E-04
   gcr:    48  0.4610E-03  0.1035E-03
   gcr:    49  0.4468E-03  0.1175E-03
   gcr:    50  0.4305E-03  0.1234E-03
   gcr:    51  0.4161E-03  0.1138E-03
   gcr:    52  0.4048E-03  0.9947E-04
   gcr:    53  0.3906E-03  0.1100E-03
   gcr:    54  0.3738E-03  0.1169E-03
   gcr:    55  0.3612E-03  0.9944E-04
   gcr:    56  0.3515E-03  0.8602E-04
   gcr:    57  0.3448E-03  0.7047E-04
   gcr:    58  0.3382E-03  0.6936E-04
   gcr:    59  0.3325E-03  0.6385E-04
   gcr:    60  0.3263E-03  0.6582E-04
   gcr:    61  0.3197E-03  0.6749E-04
   gcr:    62  0.3132E-03  0.6629E-04
   gcr:    63  0.3050E-03  0.7320E-04
   gcr:    64  0.2935E-03  0.8600E-04
   gcr:    65  0.2818E-03  0.8443E-04
   gcr:    66  0.2736E-03  0.7006E-04
   gcr:    67  0.2673E-03  0.6025E-04
   gcr:    68  0.2611E-03  0.5912E-04
   gcr:    69  0.2555E-03  0.5530E-04
   gcr:    70  0.2500E-03  0.5435E-04
   gcr:    71  0.2443E-03  0.5481E-04
   gcr:    72  0.2387E-03  0.5403E-04
   gcr:    73  0.2321E-03  0.5753E-04
   gcr:    74  0.2238E-03  0.6328E-04
   gcr:    75  0.2126E-03  0.7246E-04
   gcr:    76  0.1983E-03  0.7896E-04
   gcr:    77  0.1780E-03  0.9041E-04
   gcr:    78  0.1541E-03  0.9203E-04
   gcr:    79  0.1293E-03  0.8647E-04
   gcr:    80  0.1089E-03  0.7211E-04
   gcr:    81  0.9011E-04  0.6306E-04
   gcr:    82  0.7098E-04  0.5733E-04
   gcr:    83  0.5633E-04  0.4461E-04
   gcr:    84  0.4456E-04  0.3558E-04
   gcr:    85  0.3523E-04  0.2818E-04
   gcr:    86  0.2755E-04  0.2269E-04
   gcr:    87  0.2009E-04  0.1947E-04
   gcr:    88  0.1396E-04  0.1492E-04
   gcr:    89  0.9299E-05  0.1075E-04
   gcr:    90  0.6547E-05  0.6820E-05
   gcr:    91  0.4734E-05  0.4671E-05
   gcr:    92  0.3340E-05  0.3464E-05
   gcr:    93  0.2365E-05  0.2436E-05
   gcr:    94  0.1710E-05  0.1687E-05
   gcr:    95  0.1219E-05  0.1239E-05
   gcr:    96  0.8702E-06  0.8823E-06
SolveLinearSystem: Calculating nodal loads for: w
ComputeChange: NS (ITER=1) (NRM,RELC): ( 0.58493107      2.0000000     ) :: coilsolver
CoilSolver: Discrepancy of start and end coil currents:   2.3806E-04
CoilSolver: Initial coil current for coil 1:  4.5902E+04
CoilSolver: Coil potential multiplier:  2.1785E-05
CutInterfaceConnections: Number of connections cut: 1904
EnforceDirichletConditions: Dirichlet conditions enforced for dofs: 522
SplittedMatrix: Elapsed REAL time:     0.0017 (s)
IterSolver: "Linear System GCR Restart" not given, setting it to 200
CRS_IncompleteLU: ILU(1) (Real), Performing Factorization:
CRS_IncompleteLU: ILU(1) (Real), NOF nonzeros:    142774
CRS_IncompleteLU: ILU(1) (Real), filling (%) :       184
CRS_IncompleteLU: ILU(1) (Real), Factorization time (s):     0.01
   gcr:     1  0.6490E-01  0.8509E+00
   gcr:     2  0.3418E-01  0.5972E-01
   gcr:     3  0.2142E-01  0.2883E-01
   gcr:     4  0.1504E-01  0.1651E-01
   gcr:     5  0.1102E-01  0.1108E-01
   gcr:     6  0.8489E-02  0.7610E-02
   gcr:     7  0.6947E-02  0.5282E-02
   gcr:     8  0.5837E-02  0.4077E-02
   gcr:     9  0.5125E-02  0.3025E-02
   gcr:    10  0.4466E-02  0.2720E-02
   gcr:    11  0.3889E-02  0.2376E-02
   gcr:    12  0.3429E-02  0.1986E-02
   gcr:    13  0.3066E-02  0.1661E-02
   gcr:    14  0.2791E-02  0.1374E-02
   gcr:    15  0.2510E-02  0.1321E-02
   gcr:    16  0.2268E-02  0.1164E-02
   gcr:    17  0.2091E-02  0.9498E-03
   gcr:    18  0.1974E-02  0.7463E-03
   gcr:    19  0.1879E-02  0.6573E-03
   gcr:    20  0.1815E-02  0.5260E-03
   gcr:    21  0.1766E-02  0.4538E-03
   gcr:    22  0.1720E-02  0.4304E-03
   gcr:    23  0.1667E-02  0.4601E-03
   gcr:    24  0.1594E-02  0.5294E-03
   gcr:    25  0.1486E-02  0.6229E-03
   gcr:    26  0.1319E-02  0.7415E-03
   gcr:    27  0.1139E-02  0.7186E-03
   gcr:    28  0.9459E-03  0.6875E-03
   gcr:    29  0.7764E-03  0.5848E-03
   gcr:    30  0.6448E-03  0.4681E-03
   gcr:    31  0.5337E-03  0.3917E-03
   gcr:    32  0.4443E-03  0.3201E-03
   gcr:    33  0.3659E-03  0.2727E-03
   gcr:    34  0.3061E-03  0.2170E-03
   gcr:    35  0.2631E-03  0.1693E-03
   gcr:    36  0.2338E-03  0.1307E-03
   gcr:    37  0.2138E-03  0.1024E-03
   gcr:    38  0.1984E-03  0.8626E-04
   gcr:    39  0.1832E-03  0.8233E-04
   gcr:    40  0.1684E-03  0.7801E-04
   gcr:    41  0.1542E-03  0.7337E-04
   gcr:    42  0.1419E-03  0.6540E-04
   gcr:    43  0.1286E-03  0.6478E-04
   gcr:    44  0.1178E-03  0.5578E-04
   gcr:    45  0.1084E-03  0.5013E-04
   gcr:    46  0.9975E-04  0.4585E-04
   gcr:    47  0.9129E-04  0.4351E-04
   gcr:    48  0.8339E-04  0.4019E-04
   gcr:    49  0.7679E-04  0.3519E-04
   gcr:    50  0.6985E-04  0.3455E-04
   gcr:    51  0.6382E-04  0.3073E-04
   gcr:    52  0.5779E-04  0.2929E-04
   gcr:    53  0.5232E-04  0.2658E-04
   gcr:    54  0.4702E-04  0.2482E-04
   gcr:    55  0.4271E-04  0.2129E-04
   gcr:    56  0.3956E-04  0.1743E-04
   gcr:    57  0.3720E-04  0.1456E-04
   gcr:    58  0.3545E-04  0.1220E-04
   gcr:    59  0.3400E-04  0.1088E-04
   gcr:    60  0.3274E-04  0.9912E-05
   gcr:    61  0.3158E-04  0.9354E-05
   gcr:    62  0.3052E-04  0.8771E-05
   gcr:    63  0.2979E-04  0.7208E-05
   gcr:    64  0.2921E-04  0.6316E-05
   gcr:    65  0.2874E-04  0.5641E-05
   gcr:    66  0.2830E-04  0.5420E-05
   gcr:    67  0.2785E-04  0.5435E-05
   gcr:    68  0.2747E-04  0.4982E-05
   gcr:    69  0.2706E-04  0.5111E-05
   gcr:    70  0.2655E-04  0.5653E-05
   gcr:    71  0.2582E-04  0.6711E-05
   gcr:    72  0.2504E-04  0.6814E-05
   gcr:    73  0.2423E-04  0.6849E-05
   gcr:    74  0.2353E-04  0.6227E-05
   gcr:    75  0.2285E-04  0.6113E-05
   gcr:    76  0.2215E-04  0.6068E-05
   gcr:    77  0.2137E-04  0.6304E-05
   gcr:    78  0.2067E-04  0.5868E-05
   gcr:    79  0.2004E-04  0.5467E-05
   gcr:    80  0.1930E-04  0.5831E-05
   gcr:    81  0.1828E-04  0.6710E-05
   gcr:    82  0.1681E-04  0.7777E-05
   gcr:    83  0.1514E-04  0.7910E-05
   gcr:    84  0.1333E-04  0.7761E-05
   gcr:    85  0.1152E-04  0.7273E-05
   gcr:    86  0.9924E-05  0.6325E-05
   gcr:    87  0.8423E-05  0.5680E-05
   gcr:    88  0.6843E-05  0.5317E-05
   gcr:    89  0.5288E-05  0.4702E-05
   gcr:    90  0.3977E-05  0.3772E-05
   gcr:    91  0.2947E-05  0.2890E-05
   gcr:    92  0.2155E-05  0.2177E-05
   gcr:    93  0.1571E-05  0.1596E-05
   gcr:    94  0.1148E-05  0.1161E-05
   gcr:    95  0.8262E-06  0.8630E-06
SolveLinearSystem: Calculating nodal loads for: w
ComputeChange: NS (ITER=2) (NRM,RELC): ( 0.58430915     0.10638021E-02 ) :: coilsolver
CoilSolver: Discrepancy of start and end coil currents:   6.6915E-04
CoilSolver: Initial coil current for coil 1:  4.5923E+04
CoilSolver: Coil potential multiplier:  2.1776E-05
CoilSolver: Computing current component: 1
SplittedMatrix: Elapsed REAL time:     0.0017 (s)
IterSolver: "Linear System GCR Restart" not given, setting it to 200
CRS_IncompleteLU: ILU(1) (Real), Performing Factorization:
CRS_IncompleteLU: ILU(1) (Real), NOF nonzeros:    142774
CRS_IncompleteLU: ILU(1) (Real), filling (%) :       184
CRS_IncompleteLU: ILU(1) (Real), Factorization time (s):     0.01
   gcr:     1  0.1005E+00  0.1021E+01
   gcr:     2  0.6059E-02  0.1030E+00
   gcr:     3  0.1539E-02  0.6016E-02
   gcr:     4  0.2913E-03  0.1551E-02
   gcr:     5  0.7502E-04  0.2889E-03
   gcr:     6  0.1542E-04  0.7537E-04
   gcr:     7  0.3790E-05  0.1535E-04
   gcr:     8  0.8299E-06  0.3797E-05
CoilSolver: Computing current component: 2
SplittedMatrix: Elapsed REAL time:     0.0017 (s)
IterSolver: "Linear System GCR Restart" not given, setting it to 200
CRS_IncompleteLU: ILU(1) (Real), Performing Factorization:
CRS_IncompleteLU: ILU(1) (Real), NOF nonzeros:    142774
CRS_IncompleteLU: ILU(1) (Real), filling (%) :       184
CRS_IncompleteLU: ILU(1) (Real), Factorization time (s):     0.01
   gcr:     1  0.1340E+00  0.1446E+01
   gcr:     2  0.7638E-02  0.1374E+00
   gcr:     3  0.2039E-02  0.7562E-02
   gcr:     4  0.3750E-03  0.2059E-02
   gcr:     5  0.9356E-04  0.3731E-03
   gcr:     6  0.1971E-04  0.9396E-04
   gcr:     7  0.4914E-05  0.1961E-04
   gcr:     8  0.1119E-05  0.4916E-05
   gcr:     9  0.2588E-06  0.1118E-05
CoilSolver: Computing current component: 3
SplittedMatrix: Elapsed REAL time:     0.0017 (s)
IterSolver: "Linear System GCR Restart" not given, setting it to 200
CRS_IncompleteLU: ILU(1) (Real), Performing Factorization:
CRS_IncompleteLU: ILU(1) (Real), NOF nonzeros:    142774
CRS_IncompleteLU: ILU(1) (Real), filling (%) :       184
CRS_IncompleteLU: ILU(1) (Real), Factorization time (s):     0.00
   gcr:     1  0.4924E+02  0.4791E+03
   gcr:     2  0.2832E+01  0.4818E+02
   gcr:     3  0.7340E+00  0.2681E+01
   gcr:     4  0.1348E+00  0.7070E+00
   gcr:     5  0.3417E-01  0.1278E+00
   gcr:     6  0.7161E-02  0.3274E-01
   gcr:     7  0.1817E-02  0.6787E-02
   gcr:     8  0.4142E-03  0.1733E-02
   gcr:     9  0.9759E-04  0.3945E-03
   gcr:    10  0.2357E-04  0.9280E-04
   gcr:    11  0.5504E-05  0.2246E-04
   gcr:    12  0.1257E-05  0.5251E-05
   gcr:    13  0.2875E-06  0.1199E-05
CoilSolver: Minimum current components:  -1.6590E+04 -1.6719E+04 -6.0345E+02
CoilSolver: Maximum current components:   1.6507E+04  1.6625E+04  5.4221E+02
CoilSolver: Computing current component: 1
SplittedMatrix: Elapsed REAL time:     0.0017 (s)
IterSolver: "Linear System GCR Restart" not given, setting it to 200
CRS_IncompleteLU: ILU(1) (Real), Performing Factorization:
CRS_IncompleteLU: ILU(1) (Real), NOF nonzeros:    142774
CRS_IncompleteLU: ILU(1) (Real), filling (%) :       184
CRS_IncompleteLU: ILU(1) (Real), Factorization time (s):     0.01
   gcr:     1  0.1005E+00  0.1021E+01
   gcr:     2  0.6058E-02  0.1030E+00
   gcr:     3  0.1538E-02  0.6015E-02
   gcr:     4  0.2912E-03  0.1551E-02
   gcr:     5  0.7500E-04  0.2888E-03
   gcr:     6  0.1542E-04  0.7535E-04
   gcr:     7  0.3790E-05  0.1535E-04
   gcr:     8  0.8298E-06  0.3797E-05
CoilSolver: Computing current component: 2
SplittedMatrix: Elapsed REAL time:     0.0017 (s)
IterSolver: "Linear System GCR Restart" not given, setting it to 200
CRS_IncompleteLU: ILU(1) (Real), Performing Factorization:
CRS_IncompleteLU: ILU(1) (Real), NOF nonzeros:    142774
CRS_IncompleteLU: ILU(1) (Real), filling (%) :       184
CRS_IncompleteLU: ILU(1) (Real), Factorization time (s):     0.01
   gcr:     1  0.1340E+00  0.1446E+01
   gcr:     2  0.7638E-02  0.1374E+00
   gcr:     3  0.2039E-02  0.7562E-02
   gcr:     4  0.3750E-03  0.2059E-02
   gcr:     5  0.9356E-04  0.3731E-03
   gcr:     6  0.1971E-04  0.9396E-04
   gcr:     7  0.4914E-05  0.1961E-04
   gcr:     8  0.1119E-05  0.4916E-05
   gcr:     9  0.2588E-06  0.1118E-05
CoilSolver: Computing current component: 3
SplittedMatrix: Elapsed REAL time:     0.0017 (s)
IterSolver: "Linear System GCR Restart" not given, setting it to 200
CRS_IncompleteLU: ILU(1) (Real), Performing Factorization:
CRS_IncompleteLU: ILU(1) (Real), NOF nonzeros:    142774
CRS_IncompleteLU: ILU(1) (Real), filling (%) :       184
CRS_IncompleteLU: ILU(1) (Real), Factorization time (s):     0.01
   gcr:     1  0.4924E+02  0.4791E+03
   gcr:     2  0.2832E+01  0.4818E+02
   gcr:     3  0.7340E+00  0.2681E+01
   gcr:     4  0.1348E+00  0.7070E+00
   gcr:     5  0.3417E-01  0.1278E+00
   gcr:     6  0.7161E-02  0.3274E-01
   gcr:     7  0.1817E-02  0.6787E-02
   gcr:     8  0.4142E-03  0.1733E-02
   gcr:     9  0.9759E-04  0.3945E-03
   gcr:    10  0.2357E-04  0.9280E-04
   gcr:    11  0.5504E-05  0.2246E-04
   gcr:    12  0.1257E-05  0.5251E-05
   gcr:    13  0.2875E-06  0.1199E-05
CoilSolver: Minimum current components:  -1.6590E+04 -1.6719E+04 -6.0345E+02
CoilSolver: Maximum current components:   1.6507E+04  1.6625E+04  5.4221E+02
CoilSolver: Normalizing current density (as for stranded coil)
CoilSolver: Finding fixing potential for elemental current density!
EnforceDirichletConditions: Dirichlet conditions enforced for dofs: 1
SplittedMatrix: Elapsed REAL time:     0.0017 (s)
IterSolver: "Linear System GCR Restart" not given, setting it to 200
CRS_IncompleteLU: ILU(1) (Real), Performing Factorization:
CRS_IncompleteLU: ILU(1) (Real), NOF nonzeros:    142774
CRS_IncompleteLU: ILU(1) (Real), filling (%) :       184
CRS_IncompleteLU: ILU(1) (Real), Factorization time (s):     0.01
   gcr:     1  0.9419E-01  0.2122E-01
   gcr:     2  0.2520E-01  0.1934E-02
   gcr:     3  0.1202E-01  0.4721E-03
   gcr:     4  0.7995E-02  0.1913E-03
   gcr:     5  0.6779E-02  0.9033E-04
   gcr:     6  0.5817E-02  0.7418E-04
   gcr:     7  0.4747E-02  0.7164E-04
   gcr:     8  0.3573E-02  0.6663E-04
   gcr:     9  0.2534E-02  0.5367E-04
   gcr:    10  0.1738E-02  0.3931E-04
   gcr:    11  0.1207E-02  0.2665E-04
   gcr:    12  0.8571E-03  0.1810E-04
   gcr:    13  0.6228E-03  0.1255E-04
   gcr:    14  0.4725E-03  0.8649E-05
   gcr:    15  0.3714E-03  0.6225E-05
   gcr:    16  0.2925E-03  0.4876E-05
   gcr:    17  0.2297E-03  0.3859E-05
   gcr:    18  0.1815E-03  0.3001E-05
   gcr:    19  0.1466E-03  0.2282E-05
   gcr:    20  0.1222E-03  0.1723E-05
   gcr:    21  0.1058E-03  0.1305E-05
   gcr:    22  0.9495E-04  0.9946E-06
   gcr:    23  0.8822E-04  0.7482E-06
   gcr:    24  0.8190E-04  0.6991E-06
   gcr:    25  0.7459E-04  0.7207E-06
   gcr:    26  0.6666E-04  0.7134E-06
   gcr:    27  0.5963E-04  0.6349E-06
   gcr:    28  0.5344E-04  0.5638E-06
   gcr:    29  0.4788E-04  0.5055E-06
   gcr:    30  0.4289E-04  0.4537E-06
   gcr:    31  0.3866E-04  0.3957E-06
   gcr:    32  0.3497E-04  0.3514E-06
   gcr:    33  0.3131E-04  0.3319E-06
   gcr:    34  0.2819E-04  0.2905E-06
   gcr:    35  0.2578E-04  0.2430E-06
   gcr:    36  0.2405E-04  0.1979E-06
   gcr:    37  0.2257E-04  0.1771E-06
   gcr:    38  0.2127E-04  0.1609E-06
   gcr:    39  0.2014E-04  0.1457E-06
   gcr:    40  0.1929E-04  0.1234E-06
   gcr:    41  0.1863E-04  0.1062E-06
   gcr:    42  0.1808E-04  0.9600E-07
   gcr:    43  0.1749E-04  0.9738E-07
   gcr:    44  0.1688E-04  0.9778E-07
   gcr:    45  0.1614E-04  0.1054E-06
   gcr:    46  0.1535E-04  0.1066E-06
   gcr:    47  0.1457E-04  0.1028E-06
   gcr:    48  0.1380E-04  0.9945E-07
   gcr:    49  0.1301E-04  0.9802E-07
   gcr:    50  0.1200E-04  0.1073E-06
   gcr:    51  0.1086E-04  0.1085E-06
   gcr:    52  0.9699E-05  0.1042E-06
   gcr:    53  0.8656E-05  0.9325E-07
   gcr:    54  0.7813E-05  0.7939E-07
   gcr:    55  0.7160E-05  0.6665E-07
   gcr:    56  0.6616E-05  0.5835E-07
   gcr:    57  0.6298E-05  0.4316E-07
   gcr:    58  0.6100E-05  0.3342E-07
   gcr:    59  0.5969E-05  0.2685E-07
   gcr:    60  0.5869E-05  0.2311E-07
   gcr:    61  0.5801E-05  0.1897E-07
   gcr:    62  0.5753E-05  0.1593E-07
   gcr:    63  0.5701E-05  0.1648E-07
   gcr:    64  0.5641E-05  0.1752E-07
   gcr:    65  0.5595E-05  0.1528E-07
   gcr:    66  0.5553E-05  0.1462E-07
   gcr:    67  0.5529E-05  0.1115E-07
   gcr:    68  0.5504E-05  0.1113E-07
   gcr:    69  0.5487E-05  0.9295E-08
   gcr:    70  0.5477E-05  0.6895E-08
   gcr:    71  0.5471E-05  0.5618E-08
   gcr:    72  0.5468E-05  0.3580E-08
   gcr:    73  0.5464E-05  0.4641E-08
   gcr:    74  0.5456E-05  0.6042E-08
   gcr:    75  0.5441E-05  0.8675E-08
   gcr:    76  0.5420E-05  0.1009E-07
   gcr:    77  0.5404E-05  0.8978E-08
   gcr:    78  0.5392E-05  0.7842E-08
   gcr:    79  0.5382E-05  0.6877E-08
   gcr:    80  0.5376E-05  0.5244E-08
   gcr:    81  0.5369E-05  0.5866E-08
   gcr:    82  0.5362E-05  0.5812E-08
   gcr:    83  0.5359E-05  0.4184E-08
   gcr:    84  0.5356E-05  0.3831E-08
   gcr:    85  0.5352E-05  0.4194E-08
   gcr:    86  0.5345E-05  0.5793E-08
   gcr:    87  0.5326E-05  0.9516E-08
   gcr:    88  0.5297E-05  0.1182E-07
   gcr:    89  0.5268E-05  0.1196E-07
   gcr:    90  0.5233E-05  0.1282E-07
   gcr:    91  0.5199E-05  0.1280E-07
   gcr:    92  0.5170E-05  0.1169E-07
   gcr:    93  0.5157E-05  0.7547E-08
   gcr:    94  0.5153E-05  0.4698E-08
   gcr:    95  0.5151E-05  0.3157E-08
   gcr:    96  0.5147E-05  0.4331E-08
   gcr:    97  0.5140E-05  0.5612E-08
   gcr:    98  0.5124E-05  0.8705E-08
   gcr:    99  0.5089E-05  0.1271E-07
   gcr:   100  0.5039E-05  0.1513E-07
   gcr:   101  0.4963E-05  0.1861E-07
   gcr:   102  0.4850E-05  0.2246E-07
   gcr:   103  0.4685E-05  0.2666E-07
   gcr:   104  0.4431E-05  0.3248E-07
   gcr:   105  0.4071E-05  0.3728E-07
   gcr:   106  0.3532E-05  0.4314E-07
   gcr:   107  0.2863E-05  0.4407E-07
   gcr:   108  0.2133E-05  0.4070E-07
   gcr:   109  0.1472E-05  0.3288E-07
   gcr:   110  0.9887E-06  0.2325E-07
SolveLinearSystem: Calculating nodal loads for: w
CoilSolver: Fixing elemental current density to be divergence free!
CoilSolver: All done
CoilSolver: --------------------------------------
MAIN: 
MAIN: -------------------------------------
MAIN: Time: 1/1:   1.000E-03
MAIN: -------------------------------------
MAIN: 
CircuitsAndDynamics: Initializing electric circuits for transient simulation
AddComponentsToBodyList: "Body 5" associated to "Component 1"
CircuitsAndDynamics: Circuit equations associated with solver index: 3
CircuitsAndDynamics: Initializing circuit 1 with 5 variables!
AddComponentEquationsAndCouplings: Using coil resistance for component 1
GetWPotentialVar: Using gradient of field to define direction: w
List_ToListMatrix: Matrix format changed from CRS to List
WhitneyAVSolver: 
WhitneyAVSolver: -------------------------------------------------
WhitneyAVSolver: Solving transient AV equations with edge elements
WhitneyAVSolver: Using Piola Transformed element basis functions
WARNING:: GetPermittivity: Permittivity not defined in material, defaulting to that of vacuum
WARNING:: GetPermittivity: Permittivity not defined in material, defaulting to that of vacuum
WARNING:: GetPermittivity: Permittivity not defined in material, defaulting to that of vacuum
WARNING:: GetPermittivity: Permittivity not defined in material, defaulting to that of vacuum
WARNING:: GetPermittivity: Permittivity not defined in material, defaulting to that of vacuum
WARNING:: GetPermittivity: Permittivity not defined in material, defaulting to that of vacuum
WARNING:: GetPermittivity: Permittivity not defined in material, defaulting to that of vacuum
WARNING:: GetPermittivity: Permittivity not defined in material, defaulting to that of vacuum
WARNING:: GetPermittivity: Permittivity not defined in material, defaulting to that of vacuum
WARNING:: GetPermittivity: Permittivity not defined in material, defaulting to that of vacuum
WARNING:: GetPermittivity: Permittivity not defined in material, defaulting to that of vacuum
WARNING:: GetPermittivity: Permittivity not defined in material, defaulting to that of vacuum
WARNING:: GetPermittivity: Permittivity not defined in material, defaulting to that of vacuum
WARNING:: GetPermittivity: Permittivity not defined in material, defaulting to that of vacuum
WARNING:: GetPermittivity: Permittivity not defined in material, defaulting to that of vacuum
WARNING:: GetPermittivity: Permittivity not defined in material, defaulting to that of vacuum
WARNING:: GetPermittivity: Permittivity not defined in material, defaulting to that of vacuum
WARNING:: GetPermittivity: Permittivity not defined in material, defaulting to that of vacuum
WARNING:: GetPermittivity: Permittivity not defined in material, defaulting to that of vacuum
WARNING:: GetPermittivity: Permittivity not defined in material, defaulting to that of vacuum
MGDynAssembly: Elapsed REAL time:     3.3856 (s)
EnforceDirichletConditions: Dirichlet conditions enforced for dofs: 20538
SolveWithLinearRestriction: Collection matrix creation time (CPU,REAL):     0.32    0.36 (s)
List_ToListMatrix: Matrix format changed from CRS to List
SplittedMatrix: Elapsed REAL time:     0.3039 (s)
CRS_IncompleteLU: ILU(0) (Real), Performing Factorization:
CRS_IncompleteLU: ILU(0) (Real), NOF nonzeros:   3681529
CRS_IncompleteLU: ILU(0) (Real), filling (%) :       100
CRS_IncompleteLU: ILU(0) (Real), Factorization time (s):     0.09
   gcr:    30  0.8079E-02  0.1887E-02
   gcr:    60  0.3548E-03  0.1839E-03
   gcr:    90  0.3727E-04  0.1473E-04
   gcr:   120  0.1376E-04 -0.2789E-06
   gcr:   150  0.1537E-05  0.4492E-06
   gcr:   180  0.3862E-06  0.8900E-07
   gcr:   210  0.1467E-06  0.1918E-08
   gcr:   240  0.4518E-07  0.1689E-07
   gcr:   270  0.1176E-07  0.3542E-08
ComputeChange: NS (ITER=1) (NRM,RELC): ( 0.40499258E-06  2.0000000     ) :: mgdynamics
WARNING:: SolveEquations: No routine related to solver!
WARNING:: SolveEquations: No routine related to solver!
WARNING:: SolveEquations: No routine related to solver!
WARNING:: SolveEquations: No routine related to solver!
WARNING:: SolveEquations: No routine related to solver!
WARNING:: SolveEquations: No routine related to solver!
WARNING:: SolveEquations: No routine related to solver!
WARNING:: SolveEquations: No routine related to solver!
WARNING:: SolveEquations: No routine related to solver!
WARNING:: SolveEquations: No routine related to solver!
WARNING:: SolveEquations: No routine related to solver!
WARNING:: SolveEquations: No routine related to solver!
WARNING:: SolveEquations: No routine related to solver!
WARNING:: SolveEquations: No routine related to solver!
WARNING:: SolveEquations: No routine related to solver!
WARNING:: SolveEquations: No routine related to solver!
WARNING:: SolveEquations: No routine related to solver!
WARNING:: SolveEquations: No routine related to solver!
WARNING:: SolveEquations: No routine related to solver!
WARNING:: SolveEquations: No routine related to solver!
MagnetoDynamicsCalcFields: ------------------------------
MagnetoDynamicsCalcFields: Computing postprocessed fields
MagnetoDynamicsCalcFields: Using potential variable: av
MagnetoDynamicsCalcFields: Using Piola transformed finite elements
WARNING:: GetPermittivity: Permittivity not defined in material, defaulting to that of vacuum
WARNING:: GetPermittivity: Permittivity not defined in material, defaulting to that of vacuum
WARNING:: GetPermittivity: Permittivity not defined in material, defaulting to that of vacuum
WARNING:: GetPermittivity: Permittivity not defined in material, defaulting to that of vacuum
WARNING:: GetPermittivity: Permittivity not defined in material, defaulting to that of vacuum
WARNING:: GetPermittivity: Permittivity not defined in material, defaulting to that of vacuum
WARNING:: GetPermittivity: Permittivity not defined in material, defaulting to that of vacuum
WARNING:: GetPermittivity: Permittivity not defined in material, defaulting to that of vacuum
WARNING:: GetPermittivity: Permittivity not defined in material, defaulting to that of vacuum
WARNING:: GetPermittivity: Permittivity not defined in material, defaulting to that of vacuum
WARNING:: GetPermittivity: Permittivity not defined in material, defaulting to that of vacuum
WARNING:: GetPermittivity: Permittivity not defined in material, defaulting to that of vacuum
WARNING:: GetPermittivity: Permittivity not defined in material, defaulting to that of vacuum
WARNING:: GetPermittivity: Permittivity not defined in material, defaulting to that of vacuum
WARNING:: GetPermittivity: Permittivity not defined in material, defaulting to that of vacuum
WARNING:: GetPermittivity: Permittivity not defined in material, defaulting to that of vacuum
WARNING:: GetPermittivity: Permittivity not defined in material, defaulting to that of vacuum
WARNING:: GetPermittivity: Permittivity not defined in material, defaulting to that of vacuum
WARNING:: GetPermittivity: Permittivity not defined in material, defaulting to that of vacuum
WARNING:: GetPermittivity: Permittivity not defined in material, defaulting to that of vacuum
MagnetoDynamicsCalcFields: Eddy current power:    9.843104E+01
MagnetoDynamicsCalcFields: ElectroMagnetic Field Energy:    2.100994E+00
ReloadInputFile: Reloading input file
LoadInputFile: Loading input file:
MAIN: *** Elmer Solver: ALL DONE ***
ReleaseMeshFaceTables: Releasing number of faces: 210160
MAIN: The end
SOLVER TOTAL TIME(CPU,REAL):        35.47       36.00
ELMER SOLVER FINISHED AT: 2026/05/01 19:37:56
