ELMER SOLVER (v 9.0) STARTED AT: 2026/05/01 20:01:23
ELMER SOLVER (v 9.0) STARTED AT: 2026/05/01 20:01:23
ELMER SOLVER (v 9.0) STARTED AT: 2026/05/01 20:01:23
ELMER SOLVER (v 9.0) STARTED AT: 2026/05/01 20:01:23
ELMER SOLVER (v 9.0) STARTED AT: 2026/05/01 20:01:23
ELMER SOLVER (v 9.0) STARTED AT: 2026/05/01 20:01:23
ELMER SOLVER (v 9.0) STARTED AT: 2026/05/01 20:01:23
ELMER SOLVER (v 9.0) STARTED AT: 2026/05/01 20:01:23
ELMER SOLVER (v 9.0) STARTED AT: 2026/05/01 20:01:23
ELMER SOLVER (v 9.0) STARTED AT: 2026/05/01 20:01:23
ELMER SOLVER (v 9.0) STARTED AT: 2026/05/01 20:01:23
ELMER SOLVER (v 9.0) STARTED AT: 2026/05/01 20:01:23
ELMER SOLVER (v 9.0) STARTED AT: 2026/05/01 20:01:23
ELMER SOLVER (v 9.0) STARTED AT: 2026/05/01 20:01:23
ELMER SOLVER (v 9.0) STARTED AT: 2026/05/01 20:01:23
ELMER SOLVER (v 9.0) STARTED AT: 2026/05/01 20:01:23
ELMER SOLVER (v 9.0) STARTED AT: 2026/05/01 20:01:23
ELMER SOLVER (v 9.0) STARTED AT: 2026/05/01 20:01:23
ELMER SOLVER (v 9.0) STARTED AT: 2026/05/01 20:01:23
ELMER SOLVER (v 9.0) STARTED AT: 2026/05/01 20:01:23
ParCommInit: ParCommInit: Initialize #PEs: 20
ParCommInit: Initialize #PEs: 20
ParCommInit: Initialize #PEs: 20
Initialize #PEs: 20
MAIN: 
MAIN: =============================================================
MAIN: ElmerSolver finite element software, Welcome!
MAIN: This program is free software licensed under (L)GPL
MAIN: Copyright 1st April 1995 - , CSC - IT Center for Science Ltd.
MAIN: Webpage http://www.csc.fi/elmer, Email elmeradm@csc.fi
MAIN: Version: 9.0 (Rev: 094910a, Compiled: 2025-11-28)
MAIN:  Running in parallel using 20 tasks.
MAIN:  Running with just one thread per task.
MAIN: =============================================================
OpenIncludeFile: Trying to include file: "HMB_circuit.definition"
MAIN: 
MAIN: 
MAIN: -------------------------------------
MAIN: Reading Model: P1low.sif
LoadInputFile: Scanning input file: P1low.sif
LoadInputFile: Scanning only size info
LoadInputFile: First time visiting
LoadInputFile: Reading base load of sif file
OpenIncludeFile: Trying to include file: "HMB_circuit.definition"
LoadInputFile: Loading input file: P1low.sif
LoadInputFile: Reading base load of sif file
OpenIncludeFile: Trying to include file: "HMB_circuit.definition"
CheckKeyword:  Unlisted keyword: [coil use w vector] in section: [component 1]
CheckKeyword:  Unlisted keyword: [w vector variable name] in section: [component 1]
CheckKeyword:  Unlisted keyword: [electrode area] in section: [component 1]
CheckKeyword:  Unlisted keyword: [i1_source] in section: [body force 1]
CheckKeyword:  Unlisted keyword: [save coil set] in section: [solver 2]
CheckKeyword:  Unlisted keyword: [save coil index] in section: [solver 2]
CheckKeyword:  Unlisted keyword: [single coil cut] in section: [solver 2]
LoadInputFile: Number of BCs: 1
LoadInputFile: Number of Body Forces: 3
LoadInputFile: Number of Initial Conditions: 0
LoadInputFile: Number of Materials: 4
LoadInputFile: Number of Equations: 2
LoadInputFile: Number of Solvers: 5
LoadInputFile: Number of Bodies: 6
ListTagKeywords: Setting weight for keywords!
ListTagKeywords: No parameters width suffix: normalize by area
ListTagKeywords: Setting weight for keywords!
ListTagKeywords: No parameters width suffix: normalize by volume
Loading user function library: [CircuitsAndDynamics]...[CircuitsAndDynamics_Init0]
Loading user function library: [CircuitsAndDynamics]...[CircuitsAndDynamics_Init0]
Loading user function library: [CoilSolver]...[CoilSolver_Init0]
Loading user function library: [CoilSolver]...[CoilSolver_Init0]
Loading user function library: [MagnetoDynamics]...[WhitneyAVSolver_Init0]
WhitneyAVSolver_Init0: Setting element type to: "n:1 e:1 -brick b:3 -quad_face b:2"
Loading user function library: [MagnetoDynamics]...[MagnetoDynamicsCalcFields_Init0]
ElmerAsciiMesh: Base mesh name: ./mesh
PermuteNodeNumbering: Performing node mapping
MapBodiesAndBCs: Minimum initial body index: 1
MapBodiesAndBCs: Maximum initial body index: 30
MapBodiesAndBCs: Minimum initial boundary index: 1
MapBodiesAndBCs: Maximum initial boundary index: 54
SParFaceNumbering: Elapsed REAL time:     1.7414 (s)
SParEdgeNumbering: Elapsed REAL time:     5.9882 (s)
ParallelNonNodal: Elapsed REAL time:     7.7517 (s)
LoadMesh: Elapsed REAL time:     9.4938 (s)
MeshStabParams: Computing stabilization parameters
MeshStabParams: Elapsed REAL time:     0.0324 (s)
CompleteModelKeywords: Created "Master Bodies" for coil of size 1
MAIN: -------------------------------------
Loading user function library: [CircuitsAndDynamics]...[CircuitsAndDynamics_Init]
Loading user function library: [CircuitsAndDynamics]...[CircuitsAndDynamics_bulk]
Loading user function library: [CircuitsAndDynamics]...[CircuitsAndDynamics_bulk]
Loading user function library: [CircuitsAndDynamics]...[CircuitsAndDynamics]
Loading user function library: [CoilSolver]...[CoilSolver_Init]
CoilSolver_int: Computing elemental field as only that can be fixed!
Loading user function library: [CoilSolver]...[CoilSolver_bulk]
Loading user function library: [CoilSolver]...[CoilSolver_bulk]
Loading user function library: [CoilSolver]...[CoilSolver]
OptimizeBandwidth: ---------------------------------------------------------
OptimizeBandwidth: Computing matrix structure for: coilsolver
OptimizeBandwidth: Initial bandwidth for coilsolver: 2722
OptimizeBandwidth: Optimized bandwidth for coilsolver: 278
OptimizeBandwidth: ---------------------------------------------------------
Loading user function library: [MagnetoDynamics]...[WhitneyAVSolver_Init]
Loading user function library: [MagnetoDynamics]...[WhitneyAVSolver_bulk]
Loading user function library: [MagnetoDynamics]...[WhitneyAVSolver_bulk]
Loading user function library: [MagnetoDynamics]...[WhitneyAVSolver]
OptimizeBandwidth: ---------------------------------------------------------
OptimizeBandwidth: Computing matrix structure for: mgdynamics
OptimizeBandwidth: Initial bandwidth for mgdynamics: 270719
OptimizeBandwidth: Optimized bandwidth for mgdynamics: 14020
OptimizeBandwidth: ---------------------------------------------------------
Loading user function library: [MagnetoDynamics]...[MagnetoDynamicsCalcFields_Init]
Loading user function library: [MagnetoDynamics]...[MagnetoDynamicsCalcFields_bulk]
Loading user function library: [MagnetoDynamics]...[MagnetoDynamicsCalcFields_bulk]
Loading user function library: [MagnetoDynamics]...[MagnetoDynamicsCalcFields]
WARNING:: AddEquationBasics: Solver 5 may require "Procedure" to operate!
OptimizeBandwidth: ---------------------------------------------------------
OptimizeBandwidth: Computing matrix structure for: mgdynpost
OptimizeBandwidth: Initial bandwidth for mgdynpost: 35655
WARNING:: AddEquationBasics: Solver 5 may require "Procedure" to operate!
WARNING:: AddEquationBasics: Solver 5 may require "Procedure" to operate!
OptimizeBandwidth: Optimized bandwidth for mgdynpost: 2650
OptimizeBandwidth: ---------------------------------------------------------
WARNING:: AddEquationBasics: Solver 5 may require "Procedure" to operate!
WARNING:: AddEquationBasics: Solver 5 may require "Procedure" to operate!
WARNING:: AddEquationBasics: Solver 5 may require "Procedure" to operate!
WARNING:: AddEquationBasics: Solver 5 may require "Procedure" to operate!
WARNING:: AddEquationBasics: Solver 5 may require "Procedure" to operate!
WARNING:: AddEquationBasics: Solver 5 may require "Procedure" to operate!
MAIN: Number of timesteps to be saved: 2
WARNING:: AddEquationBasics: Solver 5 may require "Procedure" to operate!
WARNING:: AddEquationBasics: Solver 5 may require "Procedure" to operate!
WARNING:: AddEquationBasics: Solver 5 may require "Procedure" to operate!
WARNING:: AddEquationBasics: Solver 5 may require "Procedure" to operate!
WARNING:: AddEquationBasics: Solver 5 may require "Procedure" to operate!
WARNING:: AddEquationBasics: Solver 5 may require "Procedure" to operate!
WARNING:: AddEquationBasics: Solver 5 may require "Procedure" to operate!
WARNING:: AddEquationBasics: Solver 5 may require "Procedure" to operate!
WARNING:: AddEquationBasics: Solver 5 may require "Procedure" to operate!
WARNING:: AddEquationBasics: Solver 5 may require "Procedure" to operate!
WARNING:: AddEquationBasics: Solver 5 may require "Procedure" to operate!
CoilSolver: --------------------------------------
CoilSolver: Solving current distribution in a coil
CoilSolver: --------------------------------------
CoilSolver: Assuming that all coils are closed!
CoilSolver: Saving elemental coil index to variable >CoilIndex e<
CoilSolver: Treating coil in Component: 1
CoilSolver: Coil volume:  7.5168E-06
CoilSolver: Coil center: -5.7894E-10  5.3553E-10  5.7000E-03
DefineCoilParameters: Fitting the coil by maximizing inertia
CoilSolver: Assuming coil to be flat i.e. axis has maximum inertia
CoilSolver: Coil axis normal: -6.8290E-08  1.6579E-08  1.0000E+00
CoilSolver: Choosing fixing nodes for set: 1
CoilSolver: Continuing after parallel reduction: 3024668
CoilSolver: Choosing fixing nodes for set: 2
CoilSolver: Continuing after parallel reduction: 651088
CoilSolver: Coil system consists of 1 coils
CoilSolver: Set1 : 455 +nodes and 471 -nodes
CoilSolver: Set2 : 459 +nodes and 444 -nodes
CoilSolver: Computing the dummy potential field
CutInterfaceConnections: Number of connections cut: 3428
EnforceDirichletConditions: Dirichlet conditions enforced for dofs: 926
SplittedMatrix: Elapsed REAL time:     0.0026 (s)
IterSolver: "Linear System GCR Restart" not given, setting it to 200
CRS_IncompleteLU: ILU(1) (Real), Performing Factorization:
CRS_IncompleteLU: ILU(1) (Real), NOF nonzeros:     48397
CRS_IncompleteLU: ILU(1) (Real), filling (%) :       174
CRS_IncompleteLU: ILU(1) (Real), Factorization time (s):     0.00
   gcr:     1  0.8301E-01  0.1063E+01
   gcr:     2  0.4830E-01  0.7201E-01
   gcr:     3  0.3113E-01  0.3938E-01
   gcr:     4  0.1989E-01  0.2554E-01
   gcr:     5  0.1299E-01  0.1606E-01
   gcr:     6  0.9770E-02  0.9124E-02
   gcr:     7  0.7612E-02  0.6531E-02
   gcr:     8  0.5988E-02  0.5013E-02
   gcr:     9  0.4719E-02  0.3931E-02
   gcr:    10  0.3844E-02  0.2919E-02
   gcr:    11  0.3281E-02  0.2136E-02
   gcr:    12  0.2871E-02  0.1693E-02
   gcr:    13  0.2576E-02  0.1353E-02
   gcr:    14  0.2373E-02  0.1068E-02
   gcr:    15  0.2229E-02  0.8702E-03
   gcr:    16  0.2111E-02  0.7629E-03
   gcr:    17  0.1973E-02  0.7993E-03
   gcr:    18  0.1831E-02  0.7853E-03
   gcr:    19  0.1671E-02  0.7959E-03
   gcr:    20  0.1517E-02  0.7475E-03
   gcr:    21  0.1379E-02  0.6759E-03
   gcr:    22  0.1274E-02  0.5612E-03
   gcr:    23  0.1207E-02  0.4349E-03
   gcr:    24  0.1152E-02  0.3844E-03
   gcr:    25  0.1109E-02  0.3320E-03
   gcr:    26  0.1060E-02  0.3487E-03
   gcr:    27  0.9910E-03  0.4015E-03
   gcr:    28  0.9223E-03  0.3869E-03
   gcr:    29  0.8565E-03  0.3648E-03
   gcr:    30  0.8105E-03  0.2952E-03
   gcr:    31  0.7685E-03  0.2745E-03
   gcr:    32  0.7320E-03  0.2499E-03
   gcr:    33  0.6996E-03  0.2295E-03
   gcr:    34  0.6702E-03  0.2141E-03
   gcr:    35  0.6469E-03  0.1866E-03
   gcr:    36  0.6259E-03  0.1745E-03
   gcr:    37  0.6084E-03  0.1565E-03
   gcr:    38  0.5910E-03  0.1541E-03
   gcr:    39  0.5707E-03  0.1641E-03
   gcr:    40  0.5457E-03  0.1778E-03
   gcr:    41  0.5176E-03  0.1846E-03
   gcr:    42  0.4931E-03  0.1678E-03
   gcr:    43  0.4717E-03  0.1532E-03
   gcr:    44  0.4530E-03  0.1403E-03
   gcr:    45  0.4359E-03  0.1311E-03
   gcr:    46  0.4227E-03  0.1137E-03
   gcr:    47  0.4122E-03  0.9972E-04
   gcr:    48  0.4022E-03  0.9627E-04
   gcr:    49  0.3927E-03  0.9299E-04
   gcr:    50  0.3827E-03  0.9360E-04
   gcr:    51  0.3723E-03  0.9478E-04
   gcr:    52  0.3620E-03  0.9272E-04
   gcr:    53  0.3511E-03  0.9378E-04
   gcr:    54  0.3398E-03  0.9432E-04
   gcr:    55  0.3283E-03  0.9334E-04
   gcr:    56  0.3167E-03  0.9251E-04
   gcr:    57  0.3041E-03  0.9419E-04
   gcr:    58  0.2919E-03  0.9105E-04
   gcr:    59  0.2800E-03  0.8784E-04
   gcr:    60  0.2696E-03  0.8059E-04
   gcr:    61  0.2599E-03  0.7659E-04
   gcr:    62  0.2533E-03  0.6195E-04
   gcr:    63  0.2494E-03  0.4721E-04
   gcr:    64  0.2463E-03  0.4182E-04
   gcr:    65  0.2437E-03  0.3790E-04
   gcr:    66  0.2411E-03  0.3781E-04
   gcr:    67  0.2386E-03  0.3715E-04
   gcr:    68  0.2361E-03  0.3648E-04
   gcr:    69  0.2333E-03  0.3894E-04
   gcr:    70  0.2294E-03  0.4516E-04
   gcr:    71  0.2242E-03  0.5196E-04
   gcr:    72  0.2188E-03  0.5230E-04
   gcr:    73  0.2135E-03  0.5072E-04
   gcr:    74  0.2082E-03  0.5063E-04
   gcr:    75  0.2026E-03  0.5106E-04
   gcr:    76  0.1974E-03  0.4877E-04
   gcr:    77  0.1926E-03  0.4607E-04
   gcr:    78  0.1885E-03  0.4203E-04
   gcr:    79  0.1850E-03  0.3868E-04
   gcr:    80  0.1820E-03  0.3540E-04
   gcr:    81  0.1794E-03  0.3241E-04
   gcr:    82  0.1764E-03  0.3534E-04
   gcr:    83  0.1725E-03  0.3910E-04
   gcr:    84  0.1686E-03  0.3893E-04
   gcr:    85  0.1646E-03  0.3886E-04
   gcr:    86  0.1607E-03  0.3797E-04
   gcr:    87  0.1573E-03  0.3520E-04
   gcr:    88  0.1545E-03  0.3145E-04
   gcr:    89  0.1522E-03  0.2801E-04
   gcr:    90  0.1505E-03  0.2445E-04
   gcr:    91  0.1488E-03  0.2388E-04
   gcr:    92  0.1467E-03  0.2679E-04
   gcr:    93  0.1438E-03  0.3113E-04
   gcr:    94  0.1396E-03  0.3648E-04
   gcr:    95  0.1348E-03  0.3887E-04
   gcr:    96  0.1292E-03  0.4086E-04
   gcr:    97  0.1224E-03  0.4424E-04
   gcr:    98  0.1144E-03  0.4631E-04
   gcr:    99  0.1059E-03  0.4639E-04
   gcr:   100  0.9650E-04  0.4638E-04
   gcr:   101  0.8485E-04  0.4903E-04
   gcr:   102  0.7068E-04  0.5007E-04
   gcr:   103  0.5539E-04  0.4682E-04
   gcr:   104  0.4336E-04  0.3676E-04
   gcr:   105  0.3476E-04  0.2764E-04
   gcr:   106  0.2866E-04  0.2098E-04
   gcr:   107  0.2324E-04  0.1789E-04
   gcr:   108  0.1919E-04  0.1397E-04
   gcr:   109  0.1597E-04  0.1135E-04
   gcr:   110  0.1298E-04  0.9932E-05
   gcr:   111  0.1045E-04  0.8204E-05
   gcr:   112  0.8073E-05  0.7079E-05
   gcr:   113  0.5935E-05  0.5836E-05
   gcr:   114  0.4186E-05  0.4486E-05
   gcr:   115  0.3022E-05  0.3089E-05
   gcr:   116  0.2277E-05  0.2119E-05
   gcr:   117  0.1725E-05  0.1585E-05
   gcr:   118  0.1357E-05  0.1136E-05
   gcr:   119  0.1072E-05  0.8876E-06
   gcr:   120  0.8568E-06  0.6862E-06
SolveLinearSystem: Calculating nodal loads for: w
ComputeChange: NS (ITER=1) (NRM,RELC): ( 0.58247237      2.0000000     ) :: coilsolver
CoilSolver: Discrepancy of start and end coil currents:   1.7038E-04
CoilSolver: Initial coil current for coil 1:  4.5754E+04
CoilSolver: Coil potential multiplier:  2.1856E-05
CutInterfaceConnections: Number of connections cut: 3302
EnforceDirichletConditions: Dirichlet conditions enforced for dofs: 903
SplittedMatrix: Elapsed REAL time:     0.0026 (s)
IterSolver: "Linear System GCR Restart" not given, setting it to 200
CRS_IncompleteLU: ILU(1) (Real), Performing Factorization:
CRS_IncompleteLU: ILU(1) (Real), NOF nonzeros:     48397
CRS_IncompleteLU: ILU(1) (Real), filling (%) :       174
CRS_IncompleteLU: ILU(1) (Real), Factorization time (s):     0.00
   gcr:     1  0.7346E-01  0.8298E+00
   gcr:     2  0.3361E-01  0.6629E-01
   gcr:     3  0.2224E-01  0.2557E-01
   gcr:     4  0.1519E-01  0.1649E-01
   gcr:     5  0.1056E-01  0.1108E-01
   gcr:     6  0.7785E-02  0.7246E-02
   gcr:     7  0.6323E-02  0.4608E-02
   gcr:     8  0.5242E-02  0.3589E-02
   gcr:     9  0.4629E-02  0.2496E-02
   gcr:    10  0.4107E-02  0.2168E-02
   gcr:    11  0.3668E-02  0.1876E-02
   gcr:    12  0.3239E-02  0.1747E-02
   gcr:    13  0.2851E-02  0.1560E-02
   gcr:    14  0.2565E-02  0.1263E-02
   gcr:    15  0.2325E-02  0.1100E-02
   gcr:    16  0.2132E-02  0.9406E-03
   gcr:    17  0.1954E-02  0.8652E-03
   gcr:    18  0.1802E-02  0.7673E-03
   gcr:    19  0.1658E-02  0.7154E-03
   gcr:    20  0.1528E-02  0.6537E-03
   gcr:    21  0.1427E-02  0.5553E-03
   gcr:    22  0.1358E-02  0.4452E-03
   gcr:    23  0.1308E-02  0.3703E-03
   gcr:    24  0.1262E-02  0.3482E-03
   gcr:    25  0.1229E-02  0.2921E-03
   gcr:    26  0.1205E-02  0.2450E-03
   gcr:    27  0.1187E-02  0.2087E-03
   gcr:    28  0.1169E-02  0.2113E-03
   gcr:    29  0.1147E-02  0.2273E-03
   gcr:    30  0.1111E-02  0.2902E-03
   gcr:    31  0.1057E-02  0.3463E-03
   gcr:    32  0.9907E-03  0.3749E-03
   gcr:    33  0.9164E-03  0.3820E-03
   gcr:    34  0.8428E-03  0.3653E-03
   gcr:    35  0.7730E-03  0.3409E-03
   gcr:    36  0.7063E-03  0.3188E-03
   gcr:    37  0.6438E-03  0.2947E-03
   gcr:    38  0.5868E-03  0.2687E-03
   gcr:    39  0.5353E-03  0.2442E-03
   gcr:    40  0.4809E-03  0.2385E-03
   gcr:    41  0.4236E-03  0.2310E-03
   gcr:    42  0.3677E-03  0.2134E-03
   gcr:    43  0.3196E-03  0.1847E-03
   gcr:    44  0.2754E-03  0.1646E-03
   gcr:    45  0.2408E-03  0.1355E-03
   gcr:    46  0.2117E-03  0.1165E-03
   gcr:    47  0.1858E-03  0.1030E-03
   gcr:    48  0.1645E-03  0.8770E-04
   gcr:    49  0.1453E-03  0.7831E-04
   gcr:    50  0.1285E-03  0.6873E-04
   gcr:    51  0.1132E-03  0.6175E-04
   gcr:    52  0.9878E-04  0.5608E-04
   gcr:    53  0.8603E-04  0.4926E-04
   gcr:    54  0.7534E-04  0.4215E-04
   gcr:    55  0.6675E-04  0.3545E-04
   gcr:    56  0.5921E-04  0.3129E-04
   gcr:    57  0.5281E-04  0.2718E-04
   gcr:    58  0.4751E-04  0.2340E-04
   gcr:    59  0.4340E-04  0.1961E-04
   gcr:    60  0.3978E-04  0.1762E-04
   gcr:    61  0.3648E-04  0.1610E-04
   gcr:    62  0.3434E-04  0.1248E-04
   gcr:    63  0.3288E-04  0.1006E-04
   gcr:    64  0.3177E-04  0.8613E-05
   gcr:    65  0.3078E-04  0.7955E-05
   gcr:    66  0.2974E-04  0.8086E-05
   gcr:    67  0.2869E-04  0.7932E-05
   gcr:    68  0.2762E-04  0.7877E-05
   gcr:    69  0.2650E-04  0.7891E-05
   gcr:    70  0.2525E-04  0.8159E-05
   gcr:    71  0.2387E-04  0.8358E-05
   gcr:    72  0.2232E-04  0.8610E-05
   gcr:    73  0.2098E-04  0.7719E-05
   gcr:    74  0.1974E-04  0.7214E-05
   gcr:    75  0.1881E-04  0.6063E-05
   gcr:    76  0.1800E-04  0.5533E-05
   gcr:    77  0.1733E-04  0.4948E-05
   gcr:    78  0.1672E-04  0.4623E-05
   gcr:    79  0.1624E-04  0.4065E-05
   gcr:    80  0.1580E-04  0.3795E-05
   gcr:    81  0.1542E-04  0.3505E-05
   gcr:    82  0.1510E-04  0.3157E-05
   gcr:    83  0.1479E-04  0.3111E-05
   gcr:    84  0.1457E-04  0.2570E-05
   gcr:    85  0.1442E-04  0.2088E-05
   gcr:    86  0.1433E-04  0.1652E-05
   gcr:    87  0.1425E-04  0.1559E-05
   gcr:    88  0.1411E-04  0.1990E-05
   gcr:    89  0.1392E-04  0.2360E-05
   gcr:    90  0.1370E-04  0.2508E-05
   gcr:    91  0.1349E-04  0.2436E-05
   gcr:    92  0.1329E-04  0.2307E-05
   gcr:    93  0.1307E-04  0.2468E-05
   gcr:    94  0.1277E-04  0.2835E-05
   gcr:    95  0.1235E-04  0.3279E-05
   gcr:    96  0.1186E-04  0.3503E-05
   gcr:    97  0.1141E-04  0.3281E-05
   gcr:    98  0.1096E-04  0.3199E-05
   gcr:    99  0.1064E-04  0.2707E-05
   gcr:   100  0.1040E-04  0.2254E-05
   gcr:   101  0.1023E-04  0.1929E-05
   gcr:   102  0.1007E-04  0.1810E-05
   gcr:   103  0.9947E-05  0.1586E-05
   gcr:   104  0.9813E-05  0.1654E-05
   gcr:   105  0.9654E-05  0.1783E-05
   gcr:   106  0.9397E-05  0.2245E-05
   gcr:   107  0.9057E-05  0.2543E-05
   gcr:   108  0.8544E-05  0.3050E-05
   gcr:   109  0.7865E-05  0.3388E-05
   gcr:   110  0.7061E-05  0.3515E-05
   gcr:   111  0.6277E-05  0.3283E-05
   gcr:   112  0.5497E-05  0.3075E-05
   gcr:   113  0.4691E-05  0.2907E-05
   gcr:   114  0.3952E-05  0.2566E-05
   gcr:   115  0.3268E-05  0.2255E-05
   gcr:   116  0.2601E-05  0.2008E-05
   gcr:   117  0.2041E-05  0.1637E-05
   gcr:   118  0.1575E-05  0.1317E-05
   gcr:   119  0.1192E-05  0.1044E-05
   gcr:   120  0.9033E-06  0.7896E-06
SolveLinearSystem: Calculating nodal loads for: w
ComputeChange: NS (ITER=2) (NRM,RELC): ( 0.57465861     0.13505398E-01 ) :: coilsolver
CoilSolver: Discrepancy of start and end coil currents:   1.0026E-03
CoilSolver: Initial coil current for coil 1:  4.5748E+04
CoilSolver: Coil potential multiplier:  2.1859E-05
CoilSolver: Computing current component: 1
SplittedMatrix: Elapsed REAL time:     0.0026 (s)
IterSolver: "Linear System GCR Restart" not given, setting it to 200
CRS_IncompleteLU: ILU(1) (Real), Performing Factorization:
CRS_IncompleteLU: ILU(1) (Real), NOF nonzeros:     48397
CRS_IncompleteLU: ILU(1) (Real), filling (%) :       174
CRS_IncompleteLU: ILU(1) (Real), Factorization time (s):     0.00
   gcr:     1  0.8175E-01  0.1013E+01
   gcr:     2  0.4166E-02  0.8302E-01
   gcr:     3  0.1079E-02  0.4091E-02
   gcr:     4  0.2001E-03  0.1078E-02
   gcr:     5  0.4845E-04  0.1974E-03
   gcr:     6  0.1046E-04  0.4810E-04
   gcr:     7  0.2521E-05  0.1032E-04
   gcr:     8  0.5812E-06  0.2495E-05
CoilSolver: Computing current component: 2
SplittedMatrix: Elapsed REAL time:     0.0026 (s)
IterSolver: "Linear System GCR Restart" not given, setting it to 200
CRS_IncompleteLU: ILU(1) (Real), Performing Factorization:
CRS_IncompleteLU: ILU(1) (Real), NOF nonzeros:     48397
CRS_IncompleteLU: ILU(1) (Real), filling (%) :       174
CRS_IncompleteLU: ILU(1) (Real), Factorization time (s):     0.00
   gcr:     1  0.1183E+00  0.1439E+01
   gcr:     2  0.6205E-02  0.1207E+00
   gcr:     3  0.1581E-02  0.6127E-02
   gcr:     4  0.2897E-03  0.1588E-02
   gcr:     5  0.7099E-04  0.2869E-03
   gcr:     6  0.1465E-04  0.7093E-04
   gcr:     7  0.3488E-05  0.1453E-04
   gcr:     8  0.7653E-06  0.3475E-05
CoilSolver: Computing current component: 3
SplittedMatrix: Elapsed REAL time:     0.0026 (s)
IterSolver: "Linear System GCR Restart" not given, setting it to 200
CRS_IncompleteLU: ILU(1) (Real), Performing Factorization:
CRS_IncompleteLU: ILU(1) (Real), NOF nonzeros:     48397
CRS_IncompleteLU: ILU(1) (Real), filling (%) :       174
CRS_IncompleteLU: ILU(1) (Real), Factorization time (s):     0.00
   gcr:     1  0.5987E+02  0.6576E+03
   gcr:     2  0.3229E+01  0.5931E+02
   gcr:     3  0.7957E+00  0.3105E+01
   gcr:     4  0.1412E+00  0.7769E+00
   gcr:     5  0.3441E-01  0.1359E+00
   gcr:     6  0.7048E-02  0.3341E-01
   gcr:     7  0.1699E-02  0.6786E-02
   gcr:     8  0.3783E-03  0.1643E-02
   gcr:     9  0.8608E-04  0.3655E-03
   gcr:    10  0.1998E-04  0.8307E-04
   gcr:    11  0.4702E-05  0.1927E-04
   gcr:    12  0.1061E-05  0.4545E-05
   gcr:    13  0.2523E-06  0.1022E-05
CoilSolver: Minimum current components:  -1.6524E+04 -1.6458E+04 -4.3458E+02
CoilSolver: Maximum current components:   1.6477E+04  1.6487E+04  4.2075E+02
CoilSolver: Computing current component: 1
SplittedMatrix: Elapsed REAL time:     0.0026 (s)
IterSolver: "Linear System GCR Restart" not given, setting it to 200
CRS_IncompleteLU: ILU(1) (Real), Performing Factorization:
CRS_IncompleteLU: ILU(1) (Real), NOF nonzeros:     48397
CRS_IncompleteLU: ILU(1) (Real), filling (%) :       174
CRS_IncompleteLU: ILU(1) (Real), Factorization time (s):     0.00
   gcr:     1  0.8176E-01  0.1013E+01
   gcr:     2  0.4167E-02  0.8302E-01
   gcr:     3  0.1080E-02  0.4092E-02
   gcr:     4  0.2002E-03  0.1079E-02
   gcr:     5  0.4847E-04  0.1975E-03
   gcr:     6  0.1046E-04  0.4812E-04
   gcr:     7  0.2523E-05  0.1033E-04
   gcr:     8  0.5816E-06  0.2496E-05
CoilSolver: Computing current component: 2
SplittedMatrix: Elapsed REAL time:     0.0026 (s)
IterSolver: "Linear System GCR Restart" not given, setting it to 200
CRS_IncompleteLU: ILU(1) (Real), Performing Factorization:
CRS_IncompleteLU: ILU(1) (Real), NOF nonzeros:     48397
CRS_IncompleteLU: ILU(1) (Real), filling (%) :       174
CRS_IncompleteLU: ILU(1) (Real), Factorization time (s):     0.00
   gcr:     1  0.1183E+00  0.1439E+01
   gcr:     2  0.6205E-02  0.1207E+00
   gcr:     3  0.1581E-02  0.6127E-02
   gcr:     4  0.2897E-03  0.1588E-02
   gcr:     5  0.7099E-04  0.2869E-03
   gcr:     6  0.1465E-04  0.7093E-04
   gcr:     7  0.3488E-05  0.1453E-04
   gcr:     8  0.7653E-06  0.3475E-05
CoilSolver: Computing current component: 3
SplittedMatrix: Elapsed REAL time:     0.0026 (s)
IterSolver: "Linear System GCR Restart" not given, setting it to 200
CRS_IncompleteLU: ILU(1) (Real), Performing Factorization:
CRS_IncompleteLU: ILU(1) (Real), NOF nonzeros:     48397
CRS_IncompleteLU: ILU(1) (Real), filling (%) :       174
CRS_IncompleteLU: ILU(1) (Real), Factorization time (s):     0.00
   gcr:     1  0.5987E+02  0.6576E+03
   gcr:     2  0.3229E+01  0.5931E+02
   gcr:     3  0.7957E+00  0.3105E+01
   gcr:     4  0.1412E+00  0.7769E+00
   gcr:     5  0.3441E-01  0.1359E+00
   gcr:     6  0.7048E-02  0.3341E-01
   gcr:     7  0.1699E-02  0.6786E-02
   gcr:     8  0.3783E-03  0.1643E-02
   gcr:     9  0.8608E-04  0.3655E-03
   gcr:    10  0.1998E-04  0.8307E-04
   gcr:    11  0.4702E-05  0.1927E-04
   gcr:    12  0.1061E-05  0.4545E-05
   gcr:    13  0.2523E-06  0.1022E-05
CoilSolver: Minimum current components:  -1.6524E+04 -1.6458E+04 -4.3458E+02
CoilSolver: Maximum current components:   1.6477E+04  1.6487E+04  4.2075E+02
CoilSolver: Normalizing current density (as for stranded coil)
CoilSolver: Finding fixing potential for elemental current density!
EnforceDirichletConditions: Dirichlet conditions enforced for dofs: 1
SplittedMatrix: Elapsed REAL time:     0.0025 (s)
IterSolver: "Linear System GCR Restart" not given, setting it to 200
CRS_IncompleteLU: ILU(1) (Real), Performing Factorization:
CRS_IncompleteLU: ILU(1) (Real), NOF nonzeros:     48397
CRS_IncompleteLU: ILU(1) (Real), filling (%) :       174
CRS_IncompleteLU: ILU(1) (Real), Factorization time (s):     0.00
   gcr:     1  0.7970E-01  0.1718E-01
   gcr:     2  0.2403E-01  0.1310E-02
   gcr:     3  0.1497E-01  0.3240E-03
   gcr:     4  0.1271E-01  0.1363E-03
   gcr:     5  0.1170E-01  0.8567E-04
   gcr:     6  0.1030E-01  0.9549E-04
   gcr:     7  0.8465E-02  0.1011E-03
   gcr:     8  0.6611E-02  0.9115E-04
   gcr:     9  0.4999E-02  0.7455E-04
   gcr:    10  0.3671E-02  0.5851E-04
   gcr:    11  0.2679E-02  0.4326E-04
   gcr:    12  0.1967E-02  0.3135E-04
   gcr:    13  0.1482E-02  0.2228E-04
   gcr:    14  0.1161E-02  0.1589E-04
   gcr:    15  0.9509E-03  0.1147E-04
   gcr:    16  0.7965E-03  0.8952E-05
   gcr:    17  0.6821E-03  0.7092E-05
   gcr:    18  0.5760E-03  0.6295E-05
   gcr:    19  0.4793E-03  0.5508E-05
   gcr:    20  0.3927E-03  0.4736E-05
   gcr:    21  0.3170E-03  0.3995E-05
   gcr:    22  0.2527E-03  0.3299E-05
   gcr:    23  0.1983E-03  0.2700E-05
   gcr:    24  0.1576E-03  0.2074E-05
   gcr:    25  0.1303E-03  0.1530E-05
   gcr:    26  0.1134E-03  0.1107E-05
   gcr:    27  0.1021E-03  0.8488E-06
   gcr:    28  0.9445E-04  0.6694E-06
   gcr:    29  0.8834E-04  0.5761E-06
   gcr:    30  0.8302E-04  0.5207E-06
   gcr:    31  0.7796E-04  0.4917E-06
   gcr:    32  0.7323E-04  0.4609E-06
   gcr:    33  0.6844E-04  0.4490E-06
   gcr:    34  0.6403E-04  0.4168E-06
   gcr:    35  0.6036E-04  0.3685E-06
   gcr:    36  0.5737E-04  0.3231E-06
   gcr:    37  0.5508E-04  0.2768E-06
   gcr:    38  0.5299E-04  0.2592E-06
   gcr:    39  0.5045E-04  0.2792E-06
   gcr:    40  0.4746E-04  0.2949E-06
   gcr:    41  0.4448E-04  0.2854E-06
   gcr:    42  0.4179E-04  0.2624E-06
   gcr:    43  0.3956E-04  0.2321E-06
   gcr:    44  0.3783E-04  0.1996E-06
   gcr:    45  0.3674E-04  0.1558E-06
   gcr:    46  0.3613E-04  0.1141E-06
   gcr:    47  0.3576E-04  0.8935E-07
   gcr:    48  0.3548E-04  0.7702E-07
   gcr:    49  0.3525E-04  0.6931E-07
   gcr:    50  0.3499E-04  0.7326E-07
   gcr:    51  0.3465E-04  0.8428E-07
   gcr:    52  0.3422E-04  0.9391E-07
   gcr:    53  0.3372E-04  0.1009E-06
   gcr:    54  0.3320E-04  0.1017E-06
   gcr:    55  0.3274E-04  0.9401E-07
   gcr:    56  0.3236E-04  0.8631E-07
   gcr:    57  0.3189E-04  0.9432E-07
   gcr:    58  0.3135E-04  0.1008E-06
   gcr:    59  0.3086E-04  0.9578E-07
   gcr:    60  0.3041E-04  0.9041E-07
   gcr:    61  0.2994E-04  0.9189E-07
   gcr:    62  0.2949E-04  0.8921E-07
   gcr:    63  0.2906E-04  0.8615E-07
   gcr:    64  0.2871E-04  0.7709E-07
   gcr:    65  0.2840E-04  0.7312E-07
   gcr:    66  0.2812E-04  0.6805E-07
   gcr:    67  0.2784E-04  0.6839E-07
   gcr:    68  0.2759E-04  0.6427E-07
   gcr:    69  0.2740E-04  0.5529E-07
   gcr:    70  0.2728E-04  0.4554E-07
   gcr:    71  0.2716E-04  0.4255E-07
   gcr:    72  0.2707E-04  0.3856E-07
   gcr:    73  0.2700E-04  0.3468E-07
   gcr:    74  0.2694E-04  0.3084E-07
   gcr:    75  0.2690E-04  0.2528E-07
   gcr:    76  0.2688E-04  0.1566E-07
   gcr:    77  0.2688E-04  0.5433E-08
   gcr:    78  0.2688E-04  0.1684E-08
   gcr:    79  0.2688E-04  0.2159E-09
   gcr:    80  0.2688E-04  0.2387E-09
   gcr:    81  0.2687E-04  0.9024E-08
   gcr:    82  0.2687E-04  0.8959E-08
   gcr:    83  0.2685E-04  0.1894E-07
   gcr:    84  0.2682E-04  0.2150E-07
   gcr:    85  0.2678E-04  0.2326E-07
   gcr:    86  0.2674E-04  0.2507E-07
   gcr:    87  0.2670E-04  0.2748E-07
   gcr:    88  0.2665E-04  0.2759E-07
   gcr:    89  0.2660E-04  0.2814E-07
   gcr:    90  0.2657E-04  0.2313E-07
   gcr:    91  0.2654E-04  0.2059E-07
   gcr:    92  0.2652E-04  0.1579E-07
   gcr:    93  0.2650E-04  0.1745E-07
   gcr:    94  0.2647E-04  0.2120E-07
   gcr:    95  0.2640E-04  0.3408E-07
   gcr:    96  0.2629E-04  0.4158E-07
   gcr:    97  0.2612E-04  0.5077E-07
   gcr:    98  0.2590E-04  0.5905E-07
   gcr:    99  0.2556E-04  0.7167E-07
   gcr:   100  0.2512E-04  0.8192E-07
   gcr:   101  0.2457E-04  0.9006E-07
   gcr:   102  0.2395E-04  0.9428E-07
   gcr:   103  0.2319E-04  0.1033E-06
   gcr:   104  0.2242E-04  0.1024E-06
   gcr:   105  0.2156E-04  0.1059E-06
   gcr:   106  0.2065E-04  0.1068E-06
   gcr:   107  0.1969E-04  0.1071E-06
   gcr:   108  0.1865E-04  0.1088E-06
   gcr:   109  0.1751E-04  0.1107E-06
   gcr:   110  0.1646E-04  0.1030E-06
   gcr:   111  0.1557E-04  0.9202E-07
   gcr:   112  0.1492E-04  0.7698E-07
   gcr:   113  0.1439E-04  0.6781E-07
   gcr:   114  0.1395E-04  0.6079E-07
   gcr:   115  0.1348E-04  0.6176E-07
   gcr:   116  0.1291E-04  0.6683E-07
   gcr:   117  0.1224E-04  0.7076E-07
   gcr:   118  0.1157E-04  0.6895E-07
   gcr:   119  0.1104E-04  0.5959E-07
   gcr:   120  0.1065E-04  0.5010E-07
   gcr:   121  0.1034E-04  0.4381E-07
   gcr:   122  0.1008E-04  0.4035E-07
   gcr:   123  0.9816E-05  0.3918E-07
   gcr:   124  0.9563E-05  0.3812E-07
   gcr:   125  0.9275E-05  0.4019E-07
   gcr:   126  0.8936E-05  0.4283E-07
   gcr:   127  0.8534E-05  0.4565E-07
   gcr:   128  0.8077E-05  0.4750E-07
   gcr:   129  0.7554E-05  0.4926E-07
   gcr:   130  0.7017E-05  0.4823E-07
   gcr:   131  0.6478E-05  0.4650E-07
   gcr:   132  0.5903E-05  0.4598E-07
   gcr:   133  0.5250E-05  0.4652E-07
   gcr:   134  0.4561E-05  0.4481E-07
   gcr:   135  0.3901E-05  0.4074E-07
   gcr:   136  0.3250E-05  0.3718E-07
   gcr:   137  0.2666E-05  0.3205E-07
   gcr:   138  0.2156E-05  0.2702E-07
   gcr:   139  0.1688E-05  0.2313E-07
   gcr:   140  0.1273E-05  0.1910E-07
   gcr:   141  0.9456E-06  0.1469E-07
SolveLinearSystem: Calculating nodal loads for: w
CoilSolver: Fixing elemental current density to be divergence free!
CoilSolver: All done
CoilSolver: --------------------------------------
MAIN: 
MAIN: -------------------------------------
MAIN: Time: 1/1:   1.000E-03
MAIN: -------------------------------------
MAIN: 
CircuitsAndDynamics: Initializing electric circuits for transient simulation
AddComponentsToBodyList: "Body 5" associated to "Component 1"
CircuitsAndDynamics: Circuit equations associated with solver index: 3
CircuitsAndDynamics: Initializing circuit 1 with 5 variables!
AddComponentEquationsAndCouplings: Using coil resistance for component 1
GetWPotentialVar: Using gradient of field to define direction: w
List_ToListMatrix: Matrix format changed from CRS to List
WhitneyAVSolver: 
WhitneyAVSolver: -------------------------------------------------
WhitneyAVSolver: Solving transient AV equations with edge elements
WhitneyAVSolver: Using Piola Transformed element basis functions
WARNING:: GetPermittivity: Permittivity not defined in material, defaulting to that of vacuum
WARNING:: GetPermittivity: Permittivity not defined in material, defaulting to that of vacuum
WARNING:: GetPermittivity: Permittivity not defined in material, defaulting to that of vacuum
WARNING:: GetPermittivity: Permittivity not defined in material, defaulting to that of vacuum
WARNING:: GetPermittivity: Permittivity not defined in material, defaulting to that of vacuum
WARNING:: GetPermittivity: Permittivity not defined in material, defaulting to that of vacuum
WARNING:: GetPermittivity: Permittivity not defined in material, defaulting to that of vacuum
WARNING:: GetPermittivity: Permittivity not defined in material, defaulting to that of vacuum
WARNING:: GetPermittivity: Permittivity not defined in material, defaulting to that of vacuum
WARNING:: GetPermittivity: Permittivity not defined in material, defaulting to that of vacuum
WARNING:: GetPermittivity: Permittivity not defined in material, defaulting to that of vacuum
WARNING:: GetPermittivity: Permittivity not defined in material, defaulting to that of vacuum
WARNING:: GetPermittivity: Permittivity not defined in material, defaulting to that of vacuum
WARNING:: GetPermittivity: Permittivity not defined in material, defaulting to that of vacuum
WARNING:: GetPermittivity: Permittivity not defined in material, defaulting to that of vacuum
WARNING:: GetPermittivity: Permittivity not defined in material, defaulting to that of vacuum
WARNING:: GetPermittivity: Permittivity not defined in material, defaulting to that of vacuum
WARNING:: GetPermittivity: Permittivity not defined in material, defaulting to that of vacuum
WARNING:: GetPermittivity: Permittivity not defined in material, defaulting to that of vacuum
WARNING:: GetPermittivity: Permittivity not defined in material, defaulting to that of vacuum
MGDynAssembly: Elapsed REAL time:     5.6223 (s)
EnforceDirichletConditions: Dirichlet conditions enforced for dofs: 34671
SolveWithLinearRestriction: Collection matrix creation time (CPU,REAL):     0.62    0.68 (s)
List_ToListMatrix: Matrix format changed from CRS to List
SplittedMatrix: Elapsed REAL time:     1.3125 (s)
CRS_IncompleteLU: ILU(0) (Real), Performing Factorization:
CRS_IncompleteLU: ILU(0) (Real), NOF nonzeros:   6847296
CRS_IncompleteLU: ILU(0) (Real), filling (%) :       100
CRS_IncompleteLU: ILU(0) (Real), Factorization time (s):     0.16
   gcr:    30  0.8054E-02  0.2861E-02
   gcr:    60  0.1984E-02  0.6085E-03
   gcr:    90  0.2319E-03  0.8939E-04
   gcr:   120  0.6171E-04 -0.5440E-06
   gcr:   150  0.7890E-05  0.1720E-05
   gcr:   180  0.3009E-05  0.7791E-06
   gcr:   210  0.1614E-05  0.6821E-07
   gcr:   240  0.6614E-06  0.1933E-06
   gcr:   270  0.2466E-06  0.7781E-07
   gcr:   300  0.4333E-07  0.1182E-07
   gcr:   330  0.1646E-07  0.2873E-08
ComputeChange: NS (ITER=1) (NRM,RELC): ( 0.34086772E-06  2.0000000     ) :: mgdynamics
WARNING:: SolveEquations: No routine related to solver!
WARNING:: SolveEquations: No routine related to solver!
WARNING:: SolveEquations: No routine related to solver!
WARNING:: SolveEquations: No routine related to solver!
WARNING:: SolveEquations: No routine related to solver!
WARNING:: SolveEquations: No routine related to solver!
WARNING:: SolveEquations: No routine related to solver!
WARNING:: SolveEquations: No routine related to solver!
WARNING:: SolveEquations: No routine related to solver!
WARNING:: SolveEquations: No routine related to solver!
WARNING:: SolveEquations: No routine related to solver!
WARNING:: SolveEquations: No routine related to solver!
WARNING:: SolveEquations: No routine related to solver!
WARNING:: SolveEquations: No routine related to solver!
WARNING:: SolveEquations: No routine related to solver!
WARNING:: SolveEquations: No routine related to solver!
WARNING:: SolveEquations: No routine related to solver!
WARNING:: SolveEquations: No routine related to solver!
WARNING:: SolveEquations: No routine related to solver!
WARNING:: SolveEquations: No routine related to solver!
MagnetoDynamicsCalcFields: ------------------------------
MagnetoDynamicsCalcFields: Computing postprocessed fields
MagnetoDynamicsCalcFields: Using potential variable: av
MagnetoDynamicsCalcFields: Using Piola transformed finite elements
WARNING:: GetPermittivity: Permittivity not defined in material, defaulting to that of vacuum
WARNING:: GetPermittivity: Permittivity not defined in material, defaulting to that of vacuum
WARNING:: GetPermittivity: Permittivity not defined in material, defaulting to that of vacuum
WARNING:: GetPermittivity: Permittivity not defined in material, defaulting to that of vacuum
WARNING:: GetPermittivity: Permittivity not defined in material, defaulting to that of vacuum
WARNING:: GetPermittivity: Permittivity not defined in material, defaulting to that of vacuum
WARNING:: GetPermittivity: Permittivity not defined in material, defaulting to that of vacuum
WARNING:: GetPermittivity: Permittivity not defined in material, defaulting to that of vacuum
WARNING:: GetPermittivity: Permittivity not defined in material, defaulting to that of vacuum
WARNING:: GetPermittivity: Permittivity not defined in material, defaulting to that of vacuum
WARNING:: GetPermittivity: Permittivity not defined in material, defaulting to that of vacuum
WARNING:: GetPermittivity: Permittivity not defined in material, defaulting to that of vacuum
WARNING:: GetPermittivity: Permittivity not defined in material, defaulting to that of vacuum
WARNING:: GetPermittivity: Permittivity not defined in material, defaulting to that of vacuum
WARNING:: GetPermittivity: Permittivity not defined in material, defaulting to that of vacuum
WARNING:: GetPermittivity: Permittivity not defined in material, defaulting to that of vacuum
WARNING:: GetPermittivity: Permittivity not defined in material, defaulting to that of vacuum
WARNING:: GetPermittivity: Permittivity not defined in material, defaulting to that of vacuum
WARNING:: GetPermittivity: Permittivity not defined in material, defaulting to that of vacuum
WARNING:: GetPermittivity: Permittivity not defined in material, defaulting to that of vacuum
MagnetoDynamicsCalcFields: Eddy current power:    9.843147E+01
MagnetoDynamicsCalcFields: ElectroMagnetic Field Energy:    1.625144E+00
ReloadInputFile: Reloading input file
LoadInputFile: Loading input file:
MAIN: *** Elmer Solver: ALL DONE ***
ReleaseMeshFaceTables: Releasing number of faces: 391430
MAIN: The end
SOLVER TOTAL TIME(CPU,REAL):       100.35      101.50
ELMER SOLVER FINISHED AT: 2026/05/01 20:03:04
