ELMER SOLVER (v 9.0) STARTED AT: 2026/05/01 20:04:27
ELMER SOLVER (v 9.0) STARTED AT: 2026/05/01 20:04:27
ELMER SOLVER (v 9.0) STARTED AT: 2026/05/01 20:04:27
ELMER SOLVER (v 9.0) STARTED AT: 2026/05/01 20:04:27
ELMER SOLVER (v 9.0) STARTED AT: 2026/05/01 20:04:27
ELMER SOLVER (v 9.0) STARTED AT: 2026/05/01 20:04:27
ELMER SOLVER (v 9.0) STARTED AT: 2026/05/01 20:04:27
ELMER SOLVER (v 9.0) STARTED AT: 2026/05/01 20:04:27
ELMER SOLVER (v 9.0) STARTED AT: 2026/05/01 20:04:27
ELMER SOLVER (v 9.0) STARTED AT: 2026/05/01 20:04:27
ELMER SOLVER (v 9.0) STARTED AT: 2026/05/01 20:04:27
ELMER SOLVER (v 9.0) STARTED AT: 2026/05/01 20:04:27
ELMER SOLVER (v 9.0) STARTED AT: 2026/05/01 20:04:27
ELMER SOLVER (v 9.0) STARTED AT: 2026/05/01 20:04:27
ELMER SOLVER (v 9.0) STARTED AT: 2026/05/01 20:04:27
ELMER SOLVER (v 9.0) STARTED AT: 2026/05/01 20:04:27
ELMER SOLVER (v 9.0) STARTED AT: 2026/05/01 20:04:27
ELMER SOLVER (v 9.0) STARTED AT: 2026/05/01 20:04:27
ELMER SOLVER (v 9.0) STARTED AT: 2026/05/01 20:04:27
ELMER SOLVER (v 9.0) STARTED AT: 2026/05/01 20:04:27
ParCommInit: ParCommInit: Initialize #PEs: 20
ParCommInit: Initialize #PEs: 20
ParCommInit: Initialize #PEs: 20
Initialize #PEs: 20
MAIN: 
MAIN: =============================================================
MAIN: ElmerSolver finite element software, Welcome!
MAIN: This program is free software licensed under (L)GPL
MAIN: Copyright 1st April 1995 - , CSC - IT Center for Science Ltd.
MAIN: Webpage http://www.csc.fi/elmer, Email elmeradm@csc.fi
MAIN: Version: 9.0 (Rev: 094910a, Compiled: 2025-11-28)
MAIN:  Running in parallel using 20 tasks.
MAIN:  Running with just one thread per task.
MAIN: =============================================================
OpenIncludeFile: Trying to include file: "HMB_circuit.definition"
MAIN: 
MAIN: 
MAIN: -------------------------------------
MAIN: Reading Model: P1low.sif
LoadInputFile: Scanning input file: P1low.sif
LoadInputFile: Scanning only size info
LoadInputFile: First time visiting
LoadInputFile: Reading base load of sif file
OpenIncludeFile: Trying to include file: "HMB_circuit.definition"
LoadInputFile: Loading input file: P1low.sif
LoadInputFile: Reading base load of sif file
OpenIncludeFile: Trying to include file: "HMB_circuit.definition"
CheckKeyword:  Unlisted keyword: [coil use w vector] in section: [component 1]
CheckKeyword:  Unlisted keyword: [w vector variable name] in section: [component 1]
CheckKeyword:  Unlisted keyword: [electrode area] in section: [component 1]
CheckKeyword:  Unlisted keyword: [i1_source] in section: [body force 1]
CheckKeyword:  Unlisted keyword: [save coil set] in section: [solver 2]
CheckKeyword:  Unlisted keyword: [save coil index] in section: [solver 2]
CheckKeyword:  Unlisted keyword: [single coil cut] in section: [solver 2]
LoadInputFile: Number of BCs: 1
LoadInputFile: Number of Body Forces: 3
LoadInputFile: Number of Initial Conditions: 0
LoadInputFile: Number of Materials: 4
LoadInputFile: Number of Equations: 2
LoadInputFile: Number of Solvers: 5
LoadInputFile: Number of Bodies: 6
ListTagKeywords: Setting weight for keywords!
ListTagKeywords: No parameters width suffix: normalize by area
ListTagKeywords: Setting weight for keywords!
ListTagKeywords: No parameters width suffix: normalize by volume
Loading user function library: [CircuitsAndDynamics]...[CircuitsAndDynamics_Init0]
Loading user function library: [CircuitsAndDynamics]...[CircuitsAndDynamics_Init0]
Loading user function library: [CoilSolver]...[CoilSolver_Init0]
Loading user function library: [CoilSolver]...[CoilSolver_Init0]
Loading user function library: [MagnetoDynamics]...[WhitneyAVSolver_Init0]
WhitneyAVSolver_Init0: Setting element type to: "n:1 e:1 -brick b:3 -quad_face b:2"
Loading user function library: [MagnetoDynamics]...[MagnetoDynamicsCalcFields_Init0]
ElmerAsciiMesh: Base mesh name: ./mesh
PermuteNodeNumbering: Performing node mapping
MapBodiesAndBCs: Minimum initial body index: 1
MapBodiesAndBCs: Maximum initial body index: 30
MapBodiesAndBCs: Minimum initial boundary index: 10
MapBodiesAndBCs: Maximum initial boundary index: 75
SParFaceNumbering: Elapsed REAL time:     1.4917 (s)
SParEdgeNumbering: Elapsed REAL time:     5.4710 (s)
ParallelNonNodal: Elapsed REAL time:     6.9841 (s)
LoadMesh: Elapsed REAL time:     8.7168 (s)
MeshStabParams: Computing stabilization parameters
MeshStabParams: Elapsed REAL time:     0.0317 (s)
CompleteModelKeywords: Created "Master Bodies" for coil of size 1
MAIN: -------------------------------------
Loading user function library: [CircuitsAndDynamics]...[CircuitsAndDynamics_Init]
Loading user function library: [CircuitsAndDynamics]...[CircuitsAndDynamics_bulk]
Loading user function library: [CircuitsAndDynamics]...[CircuitsAndDynamics_bulk]
Loading user function library: [CircuitsAndDynamics]...[CircuitsAndDynamics]
Loading user function library: [CoilSolver]...[CoilSolver_Init]
CoilSolver_int: Computing elemental field as only that can be fixed!
Loading user function library: [CoilSolver]...[CoilSolver_bulk]
Loading user function library: [CoilSolver]...[CoilSolver_bulk]
Loading user function library: [CoilSolver]...[CoilSolver]
Loading user function library: [MagnetoDynamics]...[WhitneyAVSolver_Init]
Loading user function library: [MagnetoDynamics]...[WhitneyAVSolver_bulk]
Loading user function library: [MagnetoDynamics]...[WhitneyAVSolver_bulk]
Loading user function library: [MagnetoDynamics]...[WhitneyAVSolver]
OptimizeBandwidth: ---------------------------------------------------------
OptimizeBandwidth: Computing matrix structure for: mgdynamics
OptimizeBandwidth: Initial bandwidth for mgdynamics: 261292
OptimizeBandwidth: Optimized bandwidth for mgdynamics: 12914
OptimizeBandwidth: ---------------------------------------------------------
Loading user function library: [MagnetoDynamics]...[MagnetoDynamicsCalcFields_Init]
Loading user function library: [MagnetoDynamics]...[MagnetoDynamicsCalcFields_bulk]
Loading user function library: [MagnetoDynamics]...[MagnetoDynamicsCalcFields_bulk]
Loading user function library: [MagnetoDynamics]...[MagnetoDynamicsCalcFields]
OptimizeBandwidth: ---------------------------------------------------------
OptimizeBandwidth: Computing matrix structure for: mgdynpost
OptimizeBandwidth: Initial bandwidth for mgdynpost: 32759
OptimizeBandwidth: Optimized bandwidth for mgdynpost: 1845
OptimizeBandwidth: ---------------------------------------------------------
WARNING:: AddEquationBasics: Solver 5 may require "Procedure" to operate!
WARNING:: AddEquationBasics: Solver 5 may require "Procedure" to operate!
WARNING:: AddEquationBasics: Solver 5 may require "Procedure" to operate!
WARNING:: AddEquationBasics: Solver 5 may require "Procedure" to operate!
MAIN: Number of timesteps to be saved: 2
WARNING:: AddEquationBasics: Solver 5 may require "Procedure" to operate!
WARNING:: AddEquationBasics: Solver 5 may require "Procedure" to operate!
WARNING:: AddEquationBasics: Solver 5 may require "Procedure" to operate!
WARNING:: AddEquationBasics: Solver 5 may require "Procedure" to operate!
WARNING:: AddEquationBasics: Solver 5 may require "Procedure" to operate!
WARNING:: AddEquationBasics: Solver 5 may require "Procedure" to operate!
WARNING:: AddEquationBasics: Solver 5 may require "Procedure" to operate!
WARNING:: AddEquationBasics: Solver 5 may require "Procedure" to operate!
WARNING:: AddEquationBasics: Solver 5 may require "Procedure" to operate!
WARNING:: AddEquationBasics: Solver 5 may require "Procedure" to operate!
WARNING:: AddEquationBasics: Solver 5 may require "Procedure" to operate!
WARNING:: AddEquationBasics: Solver 5 may require "Procedure" to operate!
WARNING:: AddEquationBasics: Solver 5 may require "Procedure" to operate!
WARNING:: AddEquationBasics: Solver 5 may require "Procedure" to operate!
WARNING:: AddEquationBasics: Solver 5 may require "Procedure" to operate!
WARNING:: AddEquationBasics: Solver 5 may require "Procedure" to operate!
MAIN: 
MAIN: -------------------------------------
MAIN: Time: 1/1:   1.000E-03
MAIN: -------------------------------------
MAIN: 
CoilSolver: --------------------------------------
CoilSolver: Solving current distribution in a coil
CoilSolver: --------------------------------------
CoilSolver: Assuming that all coils are closed!
CoilSolver: Saving elemental coil index to variable >CoilIndex e<
CoilSolver: Treating coil in Component: 1
CoilSolver: Coil volume:  7.5168E-06
CoilSolver: Coil center: -5.7894E-10  5.3553E-10  5.7000E-03
DefineCoilParameters: Fitting the coil by maximizing inertia
CoilSolver: Assuming coil to be flat i.e. axis has maximum inertia
CoilSolver: Coil axis normal: -6.8290E-08  1.6579E-08  1.0000E+00
CoilSolver: Choosing fixing nodes for set: 1
CoilSolver: Continuing after parallel reduction: 1728954
CoilSolver: Continuing after parallel reduction: 453
CoilSolver: Choosing fixing nodes for set: 2
CoilSolver: Continuing after parallel reduction: 1364860
CoilSolver: Continuing after parallel reduction: 6496
CoilSolver: Coil system consists of 1 coils
CoilSolver: Set1 : 462 +nodes and 475 -nodes
CoilSolver: Set2 : 458 +nodes and 451 -nodes
CoilSolver: Computing the dummy potential field
CutInterfaceConnections: Number of connections cut: 3680
EnforceDirichletConditions: Dirichlet conditions enforced for dofs: 937
SplittedMatrix: Elapsed REAL time:     0.0039 (s)
IterSolver: "Linear System GCR Restart" not given, setting it to 200
CRS_IncompleteLU: ILU(1) (Real), Performing Factorization:
CRS_IncompleteLU: ILU(1) (Real), NOF nonzeros:    169948
CRS_IncompleteLU: ILU(1) (Real), filling (%) :       183
CRS_IncompleteLU: ILU(1) (Real), Factorization time (s):     0.02
SolveLinearSystem: Calculating nodal loads for: w
ComputeChange: NS (ITER=1) (NRM,RELC): ( 0.58329185      2.0000000     ) :: coilsolver
CoilSolver: Discrepancy of start and end coil currents:   7.1236E-04
CoilSolver: Initial coil current for coil 1:  4.5773E+04
CoilSolver: Coil potential multiplier:  2.1847E-05
CutInterfaceConnections: Number of connections cut: 3446
EnforceDirichletConditions: Dirichlet conditions enforced for dofs: 909
SplittedMatrix: Elapsed REAL time:     0.0049 (s)
IterSolver: "Linear System GCR Restart" not given, setting it to 200
CRS_IncompleteLU: ILU(1) (Real), Performing Factorization:
CRS_IncompleteLU: ILU(1) (Real), NOF nonzeros:    169948
CRS_IncompleteLU: ILU(1) (Real), filling (%) :       183
CRS_IncompleteLU: ILU(1) (Real), Factorization time (s):     0.01
SolveLinearSystem: Calculating nodal loads for: w
ComputeChange: NS (ITER=2) (NRM,RELC): ( 0.57851862     0.82168944E-02 ) :: coilsolver
CoilSolver: Discrepancy of start and end coil currents:   5.1818E-04
CoilSolver: Initial coil current for coil 1:  4.5802E+04
CoilSolver: Coil potential multiplier:  2.1833E-05
CoilSolver: Computing current component: 1
SplittedMatrix: Elapsed REAL time:     0.0039 (s)
IterSolver: "Linear System GCR Restart" not given, setting it to 200
CRS_IncompleteLU: ILU(1) (Real), Performing Factorization:
CRS_IncompleteLU: ILU(1) (Real), NOF nonzeros:    169948
CRS_IncompleteLU: ILU(1) (Real), filling (%) :       183
CRS_IncompleteLU: ILU(1) (Real), Factorization time (s):     0.01
CoilSolver: Computing current component: 2
SplittedMatrix: Elapsed REAL time:     0.0039 (s)
IterSolver: "Linear System GCR Restart" not given, setting it to 200
CRS_IncompleteLU: ILU(1) (Real), Performing Factorization:
CRS_IncompleteLU: ILU(1) (Real), NOF nonzeros:    169948
CRS_IncompleteLU: ILU(1) (Real), filling (%) :       183
CRS_IncompleteLU: ILU(1) (Real), Factorization time (s):     0.01
CoilSolver: Computing current component: 3
SplittedMatrix: Elapsed REAL time:     0.0039 (s)
IterSolver: "Linear System GCR Restart" not given, setting it to 200
CRS_IncompleteLU: ILU(1) (Real), Performing Factorization:
CRS_IncompleteLU: ILU(1) (Real), NOF nonzeros:    169948
CRS_IncompleteLU: ILU(1) (Real), filling (%) :       183
CRS_IncompleteLU: ILU(1) (Real), Factorization time (s):     0.01
CoilSolver: Minimum current components:  -1.6434E+04 -1.6429E+04 -4.3862E+02
CoilSolver: Maximum current components:   1.6451E+04  1.6408E+04  4.2846E+02
CoilSolver: Computing current component: 1
SplittedMatrix: Elapsed REAL time:     0.0039 (s)
IterSolver: "Linear System GCR Restart" not given, setting it to 200
CRS_IncompleteLU: ILU(1) (Real), Performing Factorization:
CRS_IncompleteLU: ILU(1) (Real), NOF nonzeros:    169948
CRS_IncompleteLU: ILU(1) (Real), filling (%) :       183
CRS_IncompleteLU: ILU(1) (Real), Factorization time (s):     0.01
CoilSolver: Computing current component: 2
SplittedMatrix: Elapsed REAL time:     0.0039 (s)
IterSolver: "Linear System GCR Restart" not given, setting it to 200
CRS_IncompleteLU: ILU(1) (Real), Performing Factorization:
CRS_IncompleteLU: ILU(1) (Real), NOF nonzeros:    169948
CRS_IncompleteLU: ILU(1) (Real), filling (%) :       183
CRS_IncompleteLU: ILU(1) (Real), Factorization time (s):     0.01
CoilSolver: Computing current component: 3
SplittedMatrix: Elapsed REAL time:     0.0039 (s)
IterSolver: "Linear System GCR Restart" not given, setting it to 200
CRS_IncompleteLU: ILU(1) (Real), Performing Factorization:
CRS_IncompleteLU: ILU(1) (Real), NOF nonzeros:    169948
CRS_IncompleteLU: ILU(1) (Real), filling (%) :       183
CRS_IncompleteLU: ILU(1) (Real), Factorization time (s):     0.01
CoilSolver: Minimum current components:  -1.6434E+04 -1.6429E+04 -4.3862E+02
CoilSolver: Maximum current components:   1.6451E+04  1.6408E+04  4.2846E+02
CoilSolver: Normalizing current density (as for stranded coil)
CoilSolver: Finding fixing potential for elemental current density!
EnforceDirichletConditions: Dirichlet conditions enforced for dofs: 1
SplittedMatrix: Elapsed REAL time:     0.0038 (s)
IterSolver: "Linear System GCR Restart" not given, setting it to 200
CRS_IncompleteLU: ILU(1) (Real), Performing Factorization:
CRS_IncompleteLU: ILU(1) (Real), NOF nonzeros:    169948
CRS_IncompleteLU: ILU(1) (Real), filling (%) :       183
CRS_IncompleteLU: ILU(1) (Real), Factorization time (s):     0.01
SolveLinearSystem: Calculating nodal loads for: w
CoilSolver: Fixing elemental current density to be divergence free!
CoilSolver: All done
CoilSolver: --------------------------------------
CircuitsAndDynamics: Initializing electric circuits for transient simulation
AddComponentsToBodyList: "Body 5" associated to "Component 1"
CircuitsAndDynamics: Circuit equations associated with solver index: 3
CircuitsAndDynamics: Initializing circuit 1 with 5 variables!
AddComponentEquationsAndCouplings: Using coil resistance for component 1
List_ToListMatrix: Matrix format changed from CRS to List
WhitneyAVSolver: 
WhitneyAVSolver: -------------------------------------------------
WhitneyAVSolver: Solving transient AV equations with edge elements
WhitneyAVSolver: Using Piola Transformed element basis functions
WARNING:: GetPermittivity: Permittivity not defined in material, defaulting to that of vacuum
WARNING:: GetPermittivity: Permittivity not defined in material, defaulting to that of vacuum
WARNING:: GetPermittivity: Permittivity not defined in material, defaulting to that of vacuum
WARNING:: GetPermittivity: Permittivity not defined in material, defaulting to that of vacuum
WARNING:: GetPermittivity: Permittivity not defined in material, defaulting to that of vacuum
WARNING:: GetPermittivity: Permittivity not defined in material, defaulting to that of vacuum
WARNING:: GetPermittivity: Permittivity not defined in material, defaulting to that of vacuum
WARNING:: GetPermittivity: Permittivity not defined in material, defaulting to that of vacuum
WARNING:: GetPermittivity: Permittivity not defined in material, defaulting to that of vacuum
WARNING:: GetPermittivity: Permittivity not defined in material, defaulting to that of vacuum
WARNING:: GetPermittivity: Permittivity not defined in material, defaulting to that of vacuum
WARNING:: GetPermittivity: Permittivity not defined in material, defaulting to that of vacuum
WARNING:: GetPermittivity: Permittivity not defined in material, defaulting to that of vacuum
WARNING:: GetPermittivity: Permittivity not defined in material, defaulting to that of vacuum
WARNING:: GetPermittivity: Permittivity not defined in material, defaulting to that of vacuum
WARNING:: GetPermittivity: Permittivity not defined in material, defaulting to that of vacuum
WARNING:: GetPermittivity: Permittivity not defined in material, defaulting to that of vacuum
WARNING:: GetPermittivity: Permittivity not defined in material, defaulting to that of vacuum
WARNING:: GetPermittivity: Permittivity not defined in material, defaulting to that of vacuum
WARNING:: GetPermittivity: Permittivity not defined in material, defaulting to that of vacuum
MGDynAssembly: Elapsed REAL time:     5.3165 (s)
EnforceDirichletConditions: Dirichlet conditions enforced for dofs: 34671
SolveWithLinearRestriction: Collection matrix creation time (CPU,REAL):     0.57    0.64 (s)
List_ToListMatrix: Matrix format changed from CRS to List
SplittedMatrix: Elapsed REAL time:     1.0367 (s)
CRS_IncompleteLU: ILU(0) (Real), Performing Factorization:
CRS_IncompleteLU: ILU(0) (Real), NOF nonzeros:   6790281
CRS_IncompleteLU: ILU(0) (Real), filling (%) :       100
CRS_IncompleteLU: ILU(0) (Real), Factorization time (s):     0.16
   gcr:    30  0.1092E-01  0.3275E-02
   gcr:    60  0.2722E-02  0.1016E-02
   gcr:    90  0.3560E-03  0.1535E-03
   gcr:   120  0.1033E-03  0.5060E-04
   gcr:   150  0.1417E-04  0.4110E-05
   gcr:   180  0.5150E-05  0.1748E-05
   gcr:   210  0.2220E-05  0.2348E-07
   gcr:   240  0.1165E-05  0.3268E-06
   gcr:   270  0.3820E-06  0.1228E-06
   gcr:   300  0.9026E-07  0.2617E-07
   gcr:   330  0.5251E-07  0.2358E-07
   gcr:   360  0.1303E-07  0.3187E-08
ComputeChange: NS (ITER=1) (NRM,RELC): ( 0.34042082E-06  2.0000000     ) :: mgdynamics
WARNING:: SolveEquations: No routine related to solver!
WARNING:: SolveEquations: No routine related to solver!
WARNING:: SolveEquations: No routine related to solver!
WARNING:: SolveEquations: No routine related to solver!
WARNING:: SolveEquations: No routine related to solver!
WARNING:: SolveEquations: No routine related to solver!
WARNING:: SolveEquations: No routine related to solver!
WARNING:: SolveEquations: No routine related to solver!
WARNING:: SolveEquations: No routine related to solver!
WARNING:: SolveEquations: No routine related to solver!
WARNING:: SolveEquations: No routine related to solver!
WARNING:: SolveEquations: No routine related to solver!
WARNING:: SolveEquations: No routine related to solver!
WARNING:: SolveEquations: No routine related to solver!
WARNING:: SolveEquations: No routine related to solver!
WARNING:: SolveEquations: No routine related to solver!
WARNING:: SolveEquations: No routine related to solver!
WARNING:: SolveEquations: No routine related to solver!
WARNING:: SolveEquations: No routine related to solver!
WARNING:: SolveEquations: No routine related to solver!
MagnetoDynamicsCalcFields: ------------------------------
MagnetoDynamicsCalcFields: Computing postprocessed fields
MagnetoDynamicsCalcFields: Using potential variable: av
MagnetoDynamicsCalcFields: Using Piola transformed finite elements
WARNING:: GetPermittivity: Permittivity not defined in material, defaulting to that of vacuum
WARNING:: GetPermittivity: Permittivity not defined in material, defaulting to that of vacuum
WARNING:: GetPermittivity: Permittivity not defined in material, defaulting to that of vacuum
WARNING:: GetPermittivity: Permittivity not defined in material, defaulting to that of vacuum
WARNING:: GetPermittivity: Permittivity not defined in material, defaulting to that of vacuum
WARNING:: GetPermittivity: Permittivity not defined in material, defaulting to that of vacuum
WARNING:: GetPermittivity: Permittivity not defined in material, defaulting to that of vacuum
WARNING:: GetPermittivity: Permittivity not defined in material, defaulting to that of vacuum
WARNING:: GetPermittivity: Permittivity not defined in material, defaulting to that of vacuum
WARNING:: GetPermittivity: Permittivity not defined in material, defaulting to that of vacuum
WARNING:: GetPermittivity: Permittivity not defined in material, defaulting to that of vacuum
WARNING:: GetPermittivity: Permittivity not defined in material, defaulting to that of vacuum
WARNING:: GetPermittivity: Permittivity not defined in material, defaulting to that of vacuum
WARNING:: GetPermittivity: Permittivity not defined in material, defaulting to that of vacuum
WARNING:: GetPermittivity: Permittivity not defined in material, defaulting to that of vacuum
WARNING:: GetPermittivity: Permittivity not defined in material, defaulting to that of vacuum
WARNING:: GetPermittivity: Permittivity not defined in material, defaulting to that of vacuum
WARNING:: GetPermittivity: Permittivity not defined in material, defaulting to that of vacuum
WARNING:: GetPermittivity: Permittivity not defined in material, defaulting to that of vacuum
WARNING:: GetPermittivity: Permittivity not defined in material, defaulting to that of vacuum
MagnetoDynamicsCalcFields: Eddy current power:    9.843147E+01
MagnetoDynamicsCalcFields: ElectroMagnetic Field Energy:    1.624359E+00
ReloadInputFile: Reloading input file
LoadInputFile: Loading input file:
MAIN: *** Elmer Solver: ALL DONE ***
ReleaseMeshFaceTables: Releasing number of faces: 378211
MAIN: The end
SOLVER TOTAL TIME(CPU,REAL):       104.87      105.93
ELMER SOLVER FINISHED AT: 2026/05/01 20:06:13
