ELMER SOLVER (v 9.0) STARTED AT: 2026/05/01 19:48:37
ELMER SOLVER (v 9.0) STARTED AT: 2026/05/01 19:48:37
ELMER SOLVER (v 9.0) STARTED AT: 2026/05/01 19:48:37
ELMER SOLVER (v 9.0) STARTED AT: 2026/05/01 19:48:37
ELMER SOLVER (v 9.0) STARTED AT: 2026/05/01 19:48:37
ELMER SOLVER (v 9.0) STARTED AT: 2026/05/01 19:48:37
ELMER SOLVER (v 9.0) STARTED AT: 2026/05/01 19:48:37
ELMER SOLVER (v 9.0) STARTED AT: 2026/05/01 19:48:37
ELMER SOLVER (v 9.0) STARTED AT: 2026/05/01 19:48:37
ELMER SOLVER (v 9.0) STARTED AT: 2026/05/01 19:48:37
ELMER SOLVER (v 9.0) STARTED AT: 2026/05/01 19:48:37
ELMER SOLVER (v 9.0) STARTED AT: 2026/05/01 19:48:37
ELMER SOLVER (v 9.0) STARTED AT: 2026/05/01 19:48:37
ELMER SOLVER (v 9.0) STARTED AT: 2026/05/01 19:48:37
ELMER SOLVER (v 9.0) STARTED AT: 2026/05/01 19:48:37
ELMER SOLVER (v 9.0) STARTED AT: 2026/05/01 19:48:37
ELMER SOLVER (v 9.0) STARTED AT: 2026/05/01 19:48:37
ELMER SOLVER (v 9.0) STARTED AT: 2026/05/01 19:48:37
ELMER SOLVER (v 9.0) STARTED AT: 2026/05/01 19:48:37
ELMER SOLVER (v 9.0) STARTED AT: 2026/05/01 19:48:37
ParCommInit: Initialize #PEs: 20
ParCommInit: ParCommInit: Initialize #PEs: 20
MAIN: 
MAIN: =============================================================
MAIN: ElmerSolver finite element software, Welcome!
MAIN: This program is free software licensed under (L)GPL
MAIN: Copyright 1st April 1995 - , CSC - IT Center for Science Ltd.
MAIN: Webpage http://www.csc.fi/elmer, Email elmeradm@csc.fi
ParCommInit: Initialize #PEs: 20
MAIN: Version: 9.0 (Rev: 094910a, Compiled: 2025-11-28)
MAIN:  Running in parallel using 20 tasks.
MAIN:  Running with just one thread per task.
MAIN: =============================================================
Initialize #PEs: 20
OpenIncludeFile: Trying to include file: "HMB_circuit.definition"
MAIN: 
MAIN: 
MAIN: -------------------------------------
MAIN: Reading Model: P1low.sif
LoadInputFile: Scanning input file: P1low.sif
LoadInputFile: Scanning only size info
LoadInputFile: First time visiting
LoadInputFile: Reading base load of sif file
OpenIncludeFile: Trying to include file: "HMB_circuit.definition"
LoadInputFile: Loading input file: P1low.sif
LoadInputFile: Reading base load of sif file
OpenIncludeFile: Trying to include file: "HMB_circuit.definition"
CheckKeyword:  Unlisted keyword: [coil use w vector] in section: [component 1]
CheckKeyword:  Unlisted keyword: [w vector variable name] in section: [component 1]
CheckKeyword:  Unlisted keyword: [electrode area] in section: [component 1]
CheckKeyword:  Unlisted keyword: [i1_source] in section: [body force 1]
CheckKeyword:  Unlisted keyword: [save coil set] in section: [solver 2]
CheckKeyword:  Unlisted keyword: [save coil index] in section: [solver 2]
CheckKeyword:  Unlisted keyword: [single coil cut] in section: [solver 2]
LoadInputFile: Number of BCs: 1
LoadInputFile: Number of Body Forces: 3
LoadInputFile: Number of Initial Conditions: 0
LoadInputFile: Number of Materials: 4
LoadInputFile: Number of Equations: 2
LoadInputFile: Number of Solvers: 5
LoadInputFile: Number of Bodies: 6
ListTagKeywords: Setting weight for keywords!
ListTagKeywords: No parameters width suffix: normalize by area
ListTagKeywords: Setting weight for keywords!
ListTagKeywords: No parameters width suffix: normalize by volume
Loading user function library: [CircuitsAndDynamics]...[CircuitsAndDynamics_Init0]
Loading user function library: [CircuitsAndDynamics]...[CircuitsAndDynamics_Init0]
Loading user function library: [CoilSolver]...[CoilSolver_Init0]
Loading user function library: [CoilSolver]...[CoilSolver_Init0]
Loading user function library: [MagnetoDynamics]...[WhitneyAVSolver_Init0]
WhitneyAVSolver_Init0: Setting element type to: "n:1 e:1 -brick b:3 -quad_face b:2"
Loading user function library: [MagnetoDynamics]...[MagnetoDynamicsCalcFields_Init0]
ElmerAsciiMesh: Base mesh name: ./mesh
PermuteNodeNumbering: Performing node mapping
MapBodiesAndBCs: Minimum initial body index: 3
MapBodiesAndBCs: Maximum initial body index: 30
MapBodiesAndBCs: Minimum initial boundary index: 26
MapBodiesAndBCs: Maximum initial boundary index: 92
SParFaceNumbering: Elapsed REAL time:     2.2610 (s)
SParEdgeNumbering: Elapsed REAL time:     8.8581 (s)
ParallelNonNodal: Elapsed REAL time:    11.1482 (s)
LoadMesh: Elapsed REAL time:    13.5591 (s)
MeshStabParams: Computing stabilization parameters
MeshStabParams: Elapsed REAL time:     0.0452 (s)
CompleteModelKeywords: Created "Master Bodies" for coil of size 1
MAIN: -------------------------------------
Loading user function library: [CircuitsAndDynamics]...[CircuitsAndDynamics_Init]
Loading user function library: [CircuitsAndDynamics]...[CircuitsAndDynamics_bulk]
Loading user function library: [CircuitsAndDynamics]...[CircuitsAndDynamics_bulk]
Loading user function library: [CircuitsAndDynamics]...[CircuitsAndDynamics]
Loading user function library: [CoilSolver]...[CoilSolver_Init]
CoilSolver_int: Computing elemental field as only that can be fixed!
Loading user function library: [CoilSolver]...[CoilSolver_bulk]
Loading user function library: [CoilSolver]...[CoilSolver_bulk]
Loading user function library: [CoilSolver]...[CoilSolver]
OptimizeBandwidth: ---------------------------------------------------------
OptimizeBandwidth: Computing matrix structure for: coilsolver
OptimizeBandwidth: Initial bandwidth for coilsolver: 5428
OptimizeBandwidth: Optimized bandwidth for coilsolver: 370
OptimizeBandwidth: ---------------------------------------------------------
Loading user function library: [MagnetoDynamics]...[WhitneyAVSolver_Init]
Loading user function library: [MagnetoDynamics]...[WhitneyAVSolver_bulk]
Loading user function library: [MagnetoDynamics]...[WhitneyAVSolver_bulk]
Loading user function library: [MagnetoDynamics]...[WhitneyAVSolver]
OptimizeBandwidth: ---------------------------------------------------------
OptimizeBandwidth: Computing matrix structure for: mgdynamics
OptimizeBandwidth: Initial bandwidth for mgdynamics: 363643
OptimizeBandwidth: Optimized bandwidth for mgdynamics: 17197
OptimizeBandwidth: ---------------------------------------------------------
Loading user function library: [MagnetoDynamics]...[MagnetoDynamicsCalcFields_Init]
Loading user function library: [MagnetoDynamics]...[MagnetoDynamicsCalcFields_bulk]
Loading user function library: [MagnetoDynamics]...[MagnetoDynamicsCalcFields_bulk]
Loading user function library: [MagnetoDynamics]...[MagnetoDynamicsCalcFields]
WARNING:: AddEquationBasics: Solver 5 may require "Procedure" to operate!
WARNING:: AddEquationBasics: Solver 5 may require "Procedure" to operate!
WARNING:: AddEquationBasics: Solver 5 may require "Procedure" to operate!
WARNING:: AddEquationBasics: Solver 5 may require "Procedure" to operate!
WARNING:: AddEquationBasics: Solver 5 may require "Procedure" to operate!
WARNING:: AddEquationBasics: Solver 5 may require "Procedure" to operate!
WARNING:: AddEquationBasics: Solver 5 may require "Procedure" to operate!
OptimizeBandwidth: ---------------------------------------------------------
OptimizeBandwidth: Computing matrix structure for: mgdynpost
OptimizeBandwidth: Initial bandwidth for mgdynpost: 45592
WARNING:: AddEquationBasics: Solver 5 may require "Procedure" to operate!
WARNING:: AddEquationBasics: Solver 5 may require "Procedure" to operate!
WARNING:: AddEquationBasics: Solver 5 may require "Procedure" to operate!
WARNING:: AddEquationBasics: Solver 5 may require "Procedure" to operate!
OptimizeBandwidth: Optimized bandwidth for mgdynpost: 2315
OptimizeBandwidth: ---------------------------------------------------------
WARNING:: AddEquationBasics: Solver 5 may require "Procedure" to operate!
WARNING:: AddEquationBasics: Solver 5 may require "Procedure" to operate!
WARNING:: AddEquationBasics: Solver 5 may require "Procedure" to operate!
MAIN: Number of timesteps to be saved: 2
WARNING:: AddEquationBasics: Solver 5 may require "Procedure" to operate!
WARNING:: AddEquationBasics: Solver 5 may require "Procedure" to operate!
WARNING:: AddEquationBasics: Solver 5 may require "Procedure" to operate!
WARNING:: AddEquationBasics: Solver 5 may require "Procedure" to operate!
WARNING:: AddEquationBasics: Solver 5 may require "Procedure" to operate!
WARNING:: AddEquationBasics: Solver 5 may require "Procedure" to operate!
CoilSolver: --------------------------------------
CoilSolver: Solving current distribution in a coil
CoilSolver: --------------------------------------
CoilSolver: Assuming that all coils are closed!
CoilSolver: Saving elemental coil index to variable >CoilIndex e<
CoilSolver: Treating coil in Component: 1
CoilSolver: Coil volume:  7.5168E-06
CoilSolver: Coil center:  5.3698E-11  6.7094E-10  5.7000E-03
DefineCoilParameters: Fitting the coil by maximizing inertia
CoilSolver: Assuming coil to be flat i.e. axis has maximum inertia
CoilSolver: Coil axis normal: -4.6198E-08  2.5198E-08  1.0000E+00
CoilSolver: Choosing fixing nodes for set: 1
CoilSolver: Continuing after parallel reduction: 1497279
CoilSolver: Continuing after parallel reduction: 189409
CoilSolver: Choosing fixing nodes for set: 2
CoilSolver: Continuing after parallel reduction: 1112905
CoilSolver: Continuing after parallel reduction: 1166
CoilSolver: Coil system consists of 1 coils
CoilSolver: Set1 : 453 +nodes and 442 -nodes
CoilSolver: Set2 : 457 +nodes and 458 -nodes
CoilSolver: Computing the dummy potential field
CutInterfaceConnections: Number of connections cut: 3550
EnforceDirichletConditions: Dirichlet conditions enforced for dofs: 895
SplittedMatrix: Elapsed REAL time:     0.0033 (s)
IterSolver: "Linear System GCR Restart" not given, setting it to 200
CRS_IncompleteLU: ILU(1) (Real), Performing Factorization:
CRS_IncompleteLU: ILU(1) (Real), NOF nonzeros:    104185
CRS_IncompleteLU: ILU(1) (Real), filling (%) :       180
CRS_IncompleteLU: ILU(1) (Real), Factorization time (s):     0.01
   gcr:     1  0.7117E-01  0.1097E+01
   gcr:     2  0.3750E-01  0.6655E-01
   gcr:     3  0.2168E-01  0.3366E-01
   gcr:     4  0.1433E-01  0.1790E-01
   gcr:     5  0.1071E-01  0.1047E-01
   gcr:     6  0.8529E-02  0.7129E-02
   gcr:     7  0.6562E-02  0.5996E-02
   gcr:     8  0.5307E-02  0.4245E-02
   gcr:     9  0.4464E-02  0.3159E-02
   gcr:    10  0.3691E-02  0.2762E-02
   gcr:    11  0.3164E-02  0.2091E-02
   gcr:    12  0.2823E-02  0.1573E-02
   gcr:    13  0.2565E-02  0.1297E-02
   gcr:    14  0.2368E-02  0.1085E-02
   gcr:    15  0.2166E-02  0.1054E-02
   gcr:    16  0.1987E-02  0.9469E-03
   gcr:    17  0.1817E-02  0.8858E-03
   gcr:    18  0.1658E-02  0.8161E-03
   gcr:    19  0.1539E-02  0.6799E-03
   gcr:    20  0.1427E-02  0.6346E-03
   gcr:    21  0.1341E-02  0.5351E-03
   gcr:    22  0.1264E-02  0.4938E-03
   gcr:    23  0.1203E-02  0.4270E-03
   gcr:    24  0.1145E-02  0.4070E-03
   gcr:    25  0.1093E-02  0.3743E-03
   gcr:    26  0.1026E-02  0.4144E-03
   gcr:    27  0.9531E-03  0.4187E-03
   gcr:    28  0.8976E-03  0.3525E-03
   gcr:    29  0.8575E-03  0.2919E-03
   gcr:    30  0.8287E-03  0.2426E-03
   gcr:    31  0.7995E-03  0.2396E-03
   gcr:    32  0.7638E-03  0.2601E-03
   gcr:    33  0.7199E-03  0.2807E-03
   gcr:    34  0.6734E-03  0.2803E-03
   gcr:    35  0.6341E-03  0.2493E-03
   gcr:    36  0.5959E-03  0.2385E-03
   gcr:    37  0.5553E-03  0.2380E-03
   gcr:    38  0.5197E-03  0.2151E-03
   gcr:    39  0.4904E-03  0.1892E-03
   gcr:    40  0.4668E-03  0.1656E-03
   gcr:    41  0.4515E-03  0.1305E-03
   gcr:    42  0.4407E-03  0.1075E-03
   gcr:    43  0.4311E-03  0.1007E-03
   gcr:    44  0.4222E-03  0.9589E-04
   gcr:    45  0.4129E-03  0.9701E-04
   gcr:    46  0.4054E-03  0.8645E-04
   gcr:    47  0.3966E-03  0.9257E-04
   gcr:    48  0.3845E-03  0.1067E-03
   gcr:    49  0.3685E-03  0.1210E-03
   gcr:    50  0.3507E-03  0.1245E-03
   gcr:    51  0.3331E-03  0.1207E-03
   gcr:    52  0.3179E-03  0.1092E-03
   gcr:    53  0.3065E-03  0.9308E-04
   gcr:    54  0.2963E-03  0.8610E-04
   gcr:    55  0.2886E-03  0.7395E-04
   gcr:    56  0.2833E-03  0.6034E-04
   gcr:    57  0.2801E-03  0.4716E-04
   gcr:    58  0.2777E-03  0.3982E-04
   gcr:    59  0.2750E-03  0.4287E-04
   gcr:    60  0.2712E-03  0.4973E-04
   gcr:    61  0.2661E-03  0.5807E-04
   gcr:    62  0.2596E-03  0.6392E-04
   gcr:    63  0.2527E-03  0.6571E-04
   gcr:    64  0.2462E-03  0.6241E-04
   gcr:    65  0.2384E-03  0.6755E-04
   gcr:    66  0.2299E-03  0.6945E-04
   gcr:    67  0.2215E-03  0.6777E-04
   gcr:    68  0.2124E-03  0.6927E-04
   gcr:    69  0.2043E-03  0.6379E-04
   gcr:    70  0.1971E-03  0.5927E-04
   gcr:    71  0.1902E-03  0.5670E-04
   gcr:    72  0.1846E-03  0.5063E-04
   gcr:    73  0.1801E-03  0.4454E-04
   gcr:    74  0.1768E-03  0.3770E-04
   gcr:    75  0.1745E-03  0.3119E-04
   gcr:    76  0.1727E-03  0.2770E-04
   gcr:    77  0.1713E-03  0.2395E-04
   gcr:    78  0.1702E-03  0.2156E-04
   gcr:    79  0.1691E-03  0.2087E-04
   gcr:    80  0.1680E-03  0.2131E-04
   gcr:    81  0.1666E-03  0.2396E-04
   gcr:    82  0.1647E-03  0.2736E-04
   gcr:    83  0.1625E-03  0.2954E-04
   gcr:    84  0.1597E-03  0.3316E-04
   gcr:    85  0.1568E-03  0.3335E-04
   gcr:    86  0.1536E-03  0.3455E-04
   gcr:    87  0.1504E-03  0.3434E-04
   gcr:    88  0.1474E-03  0.3310E-04
   gcr:    89  0.1447E-03  0.3085E-04
   gcr:    90  0.1416E-03  0.3287E-04
   gcr:    91  0.1379E-03  0.3508E-04
   gcr:    92  0.1340E-03  0.3616E-04
   gcr:    93  0.1286E-03  0.4121E-04
   gcr:    94  0.1231E-03  0.4121E-04
   gcr:    95  0.1169E-03  0.4224E-04
   gcr:    96  0.1077E-03  0.4996E-04
   gcr:    97  0.9660E-04  0.5249E-04
   gcr:    98  0.8181E-04  0.5652E-04
   gcr:    99  0.6802E-04  0.5001E-04
   gcr:   100  0.5677E-04  0.4122E-04
   gcr:   101  0.4802E-04  0.3331E-04
   gcr:   102  0.4053E-04  0.2834E-04
   gcr:   103  0.3312E-04  0.2570E-04
   gcr:   104  0.2630E-04  0.2214E-04
   gcr:   105  0.2113E-04  0.1723E-04
   gcr:   106  0.1738E-04  0.1322E-04
   gcr:   107  0.1430E-04  0.1086E-04
   gcr:   108  0.1153E-04  0.9310E-05
   gcr:   109  0.9100E-05  0.7792E-05
   gcr:   110  0.7127E-05  0.6226E-05
   gcr:   111  0.5747E-05  0.4637E-05
   gcr:   112  0.4665E-05  0.3692E-05
   gcr:   113  0.3719E-05  0.3099E-05
   gcr:   114  0.3011E-05  0.2402E-05
   gcr:   115  0.2491E-05  0.1861E-05
   gcr:   116  0.2019E-05  0.1605E-05
   gcr:   117  0.1573E-05  0.1394E-05
   gcr:   118  0.1208E-05  0.1108E-05
   gcr:   119  0.9292E-06  0.8499E-06
SolveLinearSystem: Calculating nodal loads for: w
ComputeChange: NS (ITER=1) (NRM,RELC): ( 0.58179363      2.0000000     ) :: coilsolver
CoilSolver: Discrepancy of start and end coil currents:   5.7110E-04
CoilSolver: Initial coil current for coil 1:  4.5745E+04
CoilSolver: Coil potential multiplier:  2.1860E-05
CutInterfaceConnections: Number of connections cut: 3420
EnforceDirichletConditions: Dirichlet conditions enforced for dofs: 915
SplittedMatrix: Elapsed REAL time:     0.0033 (s)
IterSolver: "Linear System GCR Restart" not given, setting it to 200
CRS_IncompleteLU: ILU(1) (Real), Performing Factorization:
CRS_IncompleteLU: ILU(1) (Real), NOF nonzeros:    104185
CRS_IncompleteLU: ILU(1) (Real), filling (%) :       180
CRS_IncompleteLU: ILU(1) (Real), Factorization time (s):     0.00
   gcr:     1  0.1071E+00  0.8643E+00
   gcr:     2  0.4371E-01  0.1071E+00
   gcr:     3  0.2558E-01  0.3884E-01
   gcr:     4  0.1550E-01  0.2230E-01
   gcr:     5  0.1056E-01  0.1243E-01
   gcr:     6  0.7567E-02  0.8069E-02
   gcr:     7  0.5983E-02  0.5076E-02
   gcr:     8  0.4730E-02  0.4015E-02
   gcr:     9  0.4102E-02  0.2580E-02
   gcr:    10  0.3585E-02  0.2185E-02
   gcr:    11  0.3259E-02  0.1636E-02
   gcr:    12  0.2967E-02  0.1478E-02
   gcr:    13  0.2714E-02  0.1312E-02
   gcr:    14  0.2462E-02  0.1253E-02
   gcr:    15  0.2211E-02  0.1186E-02
   gcr:    16  0.1978E-02  0.1082E-02
   gcr:    17  0.1765E-02  0.9785E-03
   gcr:    18  0.1591E-02  0.8384E-03
   gcr:    19  0.1445E-02  0.7299E-03
   gcr:    20  0.1333E-02  0.6105E-03
   gcr:    21  0.1246E-02  0.5195E-03
   gcr:    22  0.1187E-02  0.4148E-03
   gcr:    23  0.1147E-02  0.3338E-03
   gcr:    24  0.1127E-02  0.2355E-03
   gcr:    25  0.1115E-02  0.1814E-03
   gcr:    26  0.1104E-02  0.1686E-03
   gcr:    27  0.1090E-02  0.1895E-03
   gcr:    28  0.1072E-02  0.2175E-03
   gcr:    29  0.1049E-02  0.2423E-03
   gcr:    30  0.1022E-02  0.2591E-03
   gcr:    31  0.9905E-03  0.2759E-03
   gcr:    32  0.9434E-03  0.3305E-03
   gcr:    33  0.8758E-03  0.3842E-03
   gcr:    34  0.8007E-03  0.3888E-03
   gcr:    35  0.7283E-03  0.3645E-03
   gcr:    36  0.6583E-03  0.3414E-03
   gcr:    37  0.6003E-03  0.2960E-03
   gcr:    38  0.5466E-03  0.2719E-03
   gcr:    39  0.4897E-03  0.2662E-03
   gcr:    40  0.4291E-03  0.2585E-03
   gcr:    41  0.3719E-03  0.2347E-03
   gcr:    42  0.3255E-03  0.1969E-03
   gcr:    43  0.2945E-03  0.1520E-03
   gcr:    44  0.2722E-03  0.1232E-03
   gcr:    45  0.2541E-03  0.1067E-03
   gcr:    46  0.2381E-03  0.9722E-04
   gcr:    47  0.2228E-03  0.9214E-04
   gcr:    48  0.2077E-03  0.8837E-04
   gcr:    49  0.1921E-03  0.8634E-04
   gcr:    50  0.1759E-03  0.8483E-04
   gcr:    51  0.1584E-03  0.8357E-04
   gcr:    52  0.1417E-03  0.7777E-04
   gcr:    53  0.1257E-03  0.7159E-04
   gcr:    54  0.1114E-03  0.6371E-04
   gcr:    55  0.9766E-04  0.5881E-04
   gcr:    56  0.8484E-04  0.5299E-04
   gcr:    57  0.7285E-04  0.4765E-04
   gcr:    58  0.6182E-04  0.4223E-04
   gcr:    59  0.5328E-04  0.3434E-04
   gcr:    60  0.4541E-04  0.3053E-04
   gcr:    61  0.3936E-04  0.2482E-04
   gcr:    62  0.3473E-04  0.2031E-04
   gcr:    63  0.3148E-04  0.1606E-04
   gcr:    64  0.2917E-04  0.1297E-04
   gcr:    65  0.2738E-04  0.1101E-04
   gcr:    66  0.2587E-04  0.9820E-05
   gcr:    67  0.2453E-04  0.9014E-05
   gcr:    68  0.2328E-04  0.8476E-05
   gcr:    69  0.2228E-04  0.7389E-05
   gcr:    70  0.2141E-04  0.6762E-05
   gcr:    71  0.2045E-04  0.6935E-05
   gcr:    72  0.1953E-04  0.6654E-05
   gcr:    73  0.1853E-04  0.6746E-05
   gcr:    74  0.1750E-04  0.6676E-05
   gcr:    75  0.1655E-04  0.6251E-05
   gcr:    76  0.1558E-04  0.6104E-05
   gcr:    77  0.1469E-04  0.5683E-05
   gcr:    78  0.1388E-04  0.5300E-05
   gcr:    79  0.1319E-04  0.4718E-05
   gcr:    80  0.1251E-04  0.4571E-05
   gcr:    81  0.1201E-04  0.3849E-05
   gcr:    82  0.1164E-04  0.3232E-05
   gcr:    83  0.1134E-04  0.2870E-05
   gcr:    84  0.1109E-04  0.2602E-05
   gcr:    85  0.1085E-04  0.2538E-05
   gcr:    86  0.1063E-04  0.2365E-05
   gcr:    87  0.1043E-04  0.2274E-05
   gcr:    88  0.1025E-04  0.2115E-05
   gcr:    89  0.1009E-04  0.1962E-05
   gcr:    90  0.9964E-05  0.1729E-05
   gcr:    91  0.9865E-05  0.1536E-05
   gcr:    92  0.9790E-05  0.1332E-05
   gcr:    93  0.9715E-05  0.1317E-05
   gcr:    94  0.9617E-05  0.1508E-05
   gcr:    95  0.9499E-05  0.1649E-05
   gcr:    96  0.9363E-05  0.1754E-05
   gcr:    97  0.9200E-05  0.1908E-05
   gcr:    98  0.8993E-05  0.2125E-05
   gcr:    99  0.8746E-05  0.2292E-05
   gcr:   100  0.8438E-05  0.2522E-05
   gcr:   101  0.8095E-05  0.2609E-05
   gcr:   102  0.7777E-05  0.2462E-05
   gcr:   103  0.7528E-05  0.2135E-05
   gcr:   104  0.7310E-05  0.1972E-05
   gcr:   105  0.7100E-05  0.1908E-05
   gcr:   106  0.6854E-05  0.2029E-05
   gcr:   107  0.6588E-05  0.2071E-05
   gcr:   108  0.6300E-05  0.2112E-05
   gcr:   109  0.5985E-05  0.2153E-05
   gcr:   110  0.5550E-05  0.2455E-05
   gcr:   111  0.4966E-05  0.2716E-05
   gcr:   112  0.4387E-05  0.2549E-05
   gcr:   113  0.3899E-05  0.2204E-05
   gcr:   114  0.3406E-05  0.2079E-05
   gcr:   115  0.2878E-05  0.1995E-05
   gcr:   116  0.2347E-05  0.1825E-05
   gcr:   117  0.1886E-05  0.1532E-05
   gcr:   118  0.1503E-05  0.1247E-05
   gcr:   119  0.1186E-05  0.1012E-05
   gcr:   120  0.9232E-06  0.8157E-06
SolveLinearSystem: Calculating nodal loads for: w
ComputeChange: NS (ITER=2) (NRM,RELC): ( 0.57892295     0.49463972E-02 ) :: coilsolver
CoilSolver: Discrepancy of start and end coil currents:   1.0473E-03
CoilSolver: Initial coil current for coil 1:  4.5752E+04
CoilSolver: Coil potential multiplier:  2.1857E-05
CoilSolver: Computing current component: 1
SplittedMatrix: Elapsed REAL time:     0.0047 (s)
IterSolver: "Linear System GCR Restart" not given, setting it to 200
CRS_IncompleteLU: ILU(1) (Real), Performing Factorization:
CRS_IncompleteLU: ILU(1) (Real), NOF nonzeros:    104185
CRS_IncompleteLU: ILU(1) (Real), filling (%) :       180
CRS_IncompleteLU: ILU(1) (Real), Factorization time (s):     0.00
   gcr:     1  0.7984E-01  0.1013E+01
   gcr:     2  0.4136E-02  0.8100E-01
   gcr:     3  0.1075E-02  0.4057E-02
   gcr:     4  0.1996E-03  0.1073E-02
   gcr:     5  0.4903E-04  0.1966E-03
   gcr:     6  0.1065E-04  0.4861E-04
   gcr:     7  0.2621E-05  0.1049E-04
   gcr:     8  0.6351E-06  0.2583E-05
CoilSolver: Computing current component: 2
SplittedMatrix: Elapsed REAL time:     0.0047 (s)
IterSolver: "Linear System GCR Restart" not given, setting it to 200
CRS_IncompleteLU: ILU(1) (Real), Performing Factorization:
CRS_IncompleteLU: ILU(1) (Real), NOF nonzeros:    104185
CRS_IncompleteLU: ILU(1) (Real), filling (%) :       180
CRS_IncompleteLU: ILU(1) (Real), Factorization time (s):     0.00
   gcr:     1  0.1173E+00  0.1437E+01
   gcr:     2  0.6276E-02  0.1195E+00
   gcr:     3  0.1603E-02  0.6190E-02
   gcr:     4  0.2936E-03  0.1607E-02
   gcr:     5  0.7219E-04  0.2903E-03
   gcr:     6  0.1539E-04  0.7195E-04
   gcr:     7  0.3860E-05  0.1520E-04
   gcr:     8  0.9444E-06  0.3818E-05
CoilSolver: Computing current component: 3
SplittedMatrix: Elapsed REAL time:     0.0047 (s)
IterSolver: "Linear System GCR Restart" not given, setting it to 200
CRS_IncompleteLU: ILU(1) (Real), Performing Factorization:
CRS_IncompleteLU: ILU(1) (Real), NOF nonzeros:    104185
CRS_IncompleteLU: ILU(1) (Real), filling (%) :       180
CRS_IncompleteLU: ILU(1) (Real), Factorization time (s):     0.00
   gcr:     1  0.6067E+02  0.6728E+03
   gcr:     2  0.3376E+01  0.5998E+02
   gcr:     3  0.8198E+00  0.3243E+01
   gcr:     4  0.1465E+00  0.7987E+00
   gcr:     5  0.3612E-01  0.1406E+00
   gcr:     6  0.7595E-02  0.3497E-01
   gcr:     7  0.1904E-02  0.7281E-02
   gcr:     8  0.4570E-03  0.1830E-02
   gcr:     9  0.1100E-03  0.4393E-03
   gcr:    10  0.2803E-04  0.1053E-03
   gcr:    11  0.6654E-05  0.2696E-04
   gcr:    12  0.1515E-05  0.6415E-05
   gcr:    13  0.3457E-06  0.1461E-05
CoilSolver: Minimum current components:  -1.6442E+04 -1.6435E+04 -4.1682E+02
CoilSolver: Maximum current components:   1.6471E+04  1.6471E+04  4.2204E+02
CoilSolver: Computing current component: 1
SplittedMatrix: Elapsed REAL time:     0.0034 (s)
IterSolver: "Linear System GCR Restart" not given, setting it to 200
CRS_IncompleteLU: ILU(1) (Real), Performing Factorization:
CRS_IncompleteLU: ILU(1) (Real), NOF nonzeros:    104185
CRS_IncompleteLU: ILU(1) (Real), filling (%) :       180
CRS_IncompleteLU: ILU(1) (Real), Factorization time (s):     0.00
   gcr:     1  0.7984E-01  0.1013E+01
   gcr:     2  0.4136E-02  0.8100E-01
   gcr:     3  0.1075E-02  0.4057E-02
   gcr:     4  0.1998E-03  0.1073E-02
   gcr:     5  0.4908E-04  0.1967E-03
   gcr:     6  0.1067E-04  0.4867E-04
   gcr:     7  0.2630E-05  0.1051E-04
   gcr:     8  0.6383E-06  0.2592E-05
CoilSolver: Computing current component: 2
SplittedMatrix: Elapsed REAL time:     0.0047 (s)
IterSolver: "Linear System GCR Restart" not given, setting it to 200
CRS_IncompleteLU: ILU(1) (Real), Performing Factorization:
CRS_IncompleteLU: ILU(1) (Real), NOF nonzeros:    104185
CRS_IncompleteLU: ILU(1) (Real), filling (%) :       180
CRS_IncompleteLU: ILU(1) (Real), Factorization time (s):     0.00
   gcr:     1  0.1173E+00  0.1437E+01
   gcr:     2  0.6276E-02  0.1195E+00
   gcr:     3  0.1603E-02  0.6190E-02
   gcr:     4  0.2936E-03  0.1607E-02
   gcr:     5  0.7219E-04  0.2903E-03
   gcr:     6  0.1539E-04  0.7195E-04
   gcr:     7  0.3860E-05  0.1520E-04
   gcr:     8  0.9444E-06  0.3818E-05
CoilSolver: Computing current component: 3
SplittedMatrix: Elapsed REAL time:     0.0037 (s)
IterSolver: "Linear System GCR Restart" not given, setting it to 200
CRS_IncompleteLU: ILU(1) (Real), Performing Factorization:
CRS_IncompleteLU: ILU(1) (Real), NOF nonzeros:    104185
CRS_IncompleteLU: ILU(1) (Real), filling (%) :       180
CRS_IncompleteLU: ILU(1) (Real), Factorization time (s):     0.00
   gcr:     1  0.6067E+02  0.6728E+03
   gcr:     2  0.3376E+01  0.5998E+02
   gcr:     3  0.8198E+00  0.3243E+01
   gcr:     4  0.1465E+00  0.7987E+00
   gcr:     5  0.3612E-01  0.1406E+00
   gcr:     6  0.7595E-02  0.3497E-01
   gcr:     7  0.1904E-02  0.7281E-02
   gcr:     8  0.4570E-03  0.1830E-02
   gcr:     9  0.1100E-03  0.4393E-03
   gcr:    10  0.2803E-04  0.1053E-03
   gcr:    11  0.6654E-05  0.2696E-04
   gcr:    12  0.1515E-05  0.6415E-05
   gcr:    13  0.3457E-06  0.1461E-05
CoilSolver: Minimum current components:  -1.6442E+04 -1.6435E+04 -4.1682E+02
CoilSolver: Maximum current components:   1.6471E+04  1.6471E+04  4.2204E+02
CoilSolver: Normalizing current density (as for stranded coil)
CoilSolver: Finding fixing potential for elemental current density!
EnforceDirichletConditions: Dirichlet conditions enforced for dofs: 1
SplittedMatrix: Elapsed REAL time:     0.0047 (s)
IterSolver: "Linear System GCR Restart" not given, setting it to 200
CRS_IncompleteLU: ILU(1) (Real), Performing Factorization:
CRS_IncompleteLU: ILU(1) (Real), NOF nonzeros:    104185
CRS_IncompleteLU: ILU(1) (Real), filling (%) :       180
CRS_IncompleteLU: ILU(1) (Real), Factorization time (s):     0.00
   gcr:     1  0.7754E-01  0.1771E-01
   gcr:     2  0.2219E-01  0.1320E-02
   gcr:     3  0.1199E-01  0.3316E-03
   gcr:     4  0.9133E-02  0.1379E-03
   gcr:     5  0.8097E-02  0.7505E-04
   gcr:     6  0.7220E-02  0.6511E-04
   gcr:     7  0.6283E-02  0.6316E-04
   gcr:     8  0.5266E-02  0.6087E-04
   gcr:     9  0.4160E-02  0.5734E-04
   gcr:    10  0.3148E-02  0.4831E-04
   gcr:    11  0.2339E-02  0.3742E-04
   gcr:    12  0.1754E-02  0.2748E-04
   gcr:    13  0.1363E-02  0.1961E-04
   gcr:    14  0.1084E-02  0.1468E-04
   gcr:    15  0.8815E-03  0.1120E-04
   gcr:    16  0.7125E-03  0.9218E-05
   gcr:    17  0.5742E-03  0.7493E-05
   gcr:    18  0.4647E-03  0.5991E-05
   gcr:    19  0.3826E-03  0.4683E-05
   gcr:    20  0.3116E-03  0.3943E-05
   gcr:    21  0.2468E-03  0.3379E-05
   gcr:    22  0.1951E-03  0.2685E-05
   gcr:    23  0.1562E-03  0.2077E-05
   gcr:    24  0.1302E-03  0.1531E-05
   gcr:    25  0.1143E-03  0.1109E-05
   gcr:    26  0.1036E-03  0.8575E-06
   gcr:    27  0.9517E-04  0.7255E-06
   gcr:    28  0.8777E-04  0.6535E-06
   gcr:    29  0.8041E-04  0.6245E-06
   gcr:    30  0.7278E-04  0.6075E-06
   gcr:    31  0.6526E-04  0.5722E-06
   gcr:    32  0.5868E-04  0.5072E-06
   gcr:    33  0.5352E-04  0.4273E-06
   gcr:    34  0.4931E-04  0.3697E-06
   gcr:    35  0.4541E-04  0.3412E-06
   gcr:    36  0.4215E-04  0.3001E-06
   gcr:    37  0.3920E-04  0.2752E-06
   gcr:    38  0.3665E-04  0.2470E-06
   gcr:    39  0.3411E-04  0.2381E-06
   gcr:    40  0.3174E-04  0.2218E-06
   gcr:    41  0.2968E-04  0.1996E-06
   gcr:    42  0.2813E-04  0.1684E-06
   gcr:    43  0.2686E-04  0.1480E-06
   gcr:    44  0.2571E-04  0.1385E-06
   gcr:    45  0.2456E-04  0.1348E-06
   gcr:    46  0.2352E-04  0.1257E-06
   gcr:    47  0.2264E-04  0.1132E-06
   gcr:    48  0.2190E-04  0.1019E-06
   gcr:    49  0.2126E-04  0.9301E-07
   gcr:    50  0.2069E-04  0.8712E-07
   gcr:    51  0.2019E-04  0.8043E-07
   gcr:    52  0.1976E-04  0.7402E-07
   gcr:    53  0.1937E-04  0.6882E-07
   gcr:    54  0.1904E-04  0.6369E-07
   gcr:    55  0.1876E-04  0.5739E-07
   gcr:    56  0.1849E-04  0.5621E-07
   gcr:    57  0.1822E-04  0.5611E-07
   gcr:    58  0.1791E-04  0.5973E-07
   gcr:    59  0.1752E-04  0.6599E-07
   gcr:    60  0.1705E-04  0.7109E-07
   gcr:    61  0.1655E-04  0.7311E-07
   gcr:    62  0.1612E-04  0.6642E-07
   gcr:    63  0.1575E-04  0.6096E-07
   gcr:    64  0.1545E-04  0.5468E-07
   gcr:    65  0.1517E-04  0.5178E-07
   gcr:    66  0.1486E-04  0.5416E-07
   gcr:    67  0.1455E-04  0.5395E-07
   gcr:    68  0.1426E-04  0.5132E-07
   gcr:    69  0.1402E-04  0.4597E-07
   gcr:    70  0.1385E-04  0.3855E-07
   gcr:    71  0.1375E-04  0.2974E-07
   gcr:    72  0.1368E-04  0.2454E-07
   gcr:    73  0.1364E-04  0.1818E-07
   gcr:    74  0.1363E-04  0.1036E-07
   gcr:    75  0.1363E-04  0.3332E-08
   gcr:    76  0.1363E-04 -0.2868E-08
   gcr:    77  0.1362E-04  0.5512E-08
   gcr:    78  0.1362E-04  0.5958E-08
   gcr:    79  0.1362E-04  0.1894E-08
   gcr:    80  0.1362E-04 -0.4540E-08
   gcr:    81  0.1360E-04  0.1015E-07
   gcr:    82  0.1358E-04  0.1358E-07
   gcr:    83  0.1355E-04  0.1743E-07
   gcr:    84  0.1351E-04  0.1882E-07
   gcr:    85  0.1346E-04  0.1960E-07
   gcr:    86  0.1342E-04  0.1842E-07
   gcr:    87  0.1340E-04  0.1277E-07
   gcr:    88  0.1338E-04  0.1211E-07
   gcr:    89  0.1337E-04  0.1164E-07
   gcr:    90  0.1334E-04  0.1527E-07
   gcr:    91  0.1331E-04  0.1661E-07
   gcr:    92  0.1327E-04  0.1845E-07
   gcr:    93  0.1323E-04  0.1770E-07
   gcr:    94  0.1320E-04  0.1582E-07
   gcr:    95  0.1318E-04  0.1228E-07
   gcr:    96  0.1317E-04  0.1119E-07
   gcr:    97  0.1313E-04  0.1612E-07
   gcr:    98  0.1308E-04  0.2147E-07
   gcr:    99  0.1299E-04  0.2769E-07
   gcr:   100  0.1284E-04  0.3480E-07
   gcr:   101  0.1257E-04  0.4663E-07
   gcr:   102  0.1219E-04  0.5448E-07
   gcr:   103  0.1173E-04  0.5891E-07
   gcr:   104  0.1127E-04  0.5768E-07
   gcr:   105  0.1088E-04  0.5191E-07
   gcr:   106  0.1050E-04  0.5040E-07
   gcr:   107  0.1011E-04  0.5092E-07
   gcr:   108  0.9738E-05  0.4796E-07
   gcr:   109  0.9430E-05  0.4315E-07
   gcr:   110  0.9193E-05  0.3729E-07
   gcr:   111  0.8993E-05  0.3388E-07
   gcr:   112  0.8798E-05  0.3310E-07
   gcr:   113  0.8621E-05  0.3116E-07
   gcr:   114  0.8444E-05  0.3082E-07
   gcr:   115  0.8250E-05  0.3203E-07
   gcr:   116  0.8034E-05  0.3330E-07
   gcr:   117  0.7792E-05  0.3474E-07
   gcr:   118  0.7540E-05  0.3490E-07
   gcr:   119  0.7291E-05  0.3413E-07
   gcr:   120  0.7063E-05  0.3216E-07
   gcr:   121  0.6866E-05  0.2939E-07
   gcr:   122  0.6691E-05  0.2737E-07
   gcr:   123  0.6510E-05  0.2745E-07
   gcr:   124  0.6336E-05  0.2653E-07
   gcr:   125  0.6181E-05  0.2476E-07
   gcr:   126  0.6017E-05  0.2511E-07
   gcr:   127  0.5782E-05  0.2959E-07
   gcr:   128  0.5433E-05  0.3515E-07
   gcr:   129  0.4969E-05  0.3902E-07
   gcr:   130  0.4355E-05  0.4248E-07
   gcr:   131  0.3691E-05  0.4105E-07
   gcr:   132  0.3093E-05  0.3578E-07
   gcr:   133  0.2581E-05  0.3026E-07
   gcr:   134  0.2119E-05  0.2617E-07
   gcr:   135  0.1683E-05  0.2288E-07
   gcr:   136  0.1318E-05  0.1857E-07
   gcr:   137  0.1006E-05  0.1513E-07
   gcr:   138  0.7512E-06  0.1189E-07
SolveLinearSystem: Calculating nodal loads for: w
CoilSolver: Fixing elemental current density to be divergence free!
CoilSolver: All done
CoilSolver: --------------------------------------
MAIN: 
MAIN: -------------------------------------
MAIN: Time: 1/1:   1.000E-03
MAIN: -------------------------------------
MAIN: 
CircuitsAndDynamics: Initializing electric circuits for transient simulation
AddComponentsToBodyList: "Body 5" associated to "Component 1"
CircuitsAndDynamics: Circuit equations associated with solver index: 3
CircuitsAndDynamics: Initializing circuit 1 with 5 variables!
AddComponentEquationsAndCouplings: Using coil resistance for component 1
GetWPotentialVar: Using gradient of field to define direction: w
List_ToListMatrix: Matrix format changed from CRS to List
WhitneyAVSolver: 
WhitneyAVSolver: -------------------------------------------------
WhitneyAVSolver: Solving transient AV equations with edge elements
WhitneyAVSolver: Using Piola Transformed element basis functions
WARNING:: GetPermittivity: Permittivity not defined in material, defaulting to that of vacuum
WARNING:: GetPermittivity: Permittivity not defined in material, defaulting to that of vacuum
WARNING:: GetPermittivity: Permittivity not defined in material, defaulting to that of vacuum
WARNING:: GetPermittivity: Permittivity not defined in material, defaulting to that of vacuum
WARNING:: GetPermittivity: Permittivity not defined in material, defaulting to that of vacuum
WARNING:: GetPermittivity: Permittivity not defined in material, defaulting to that of vacuum
WARNING:: GetPermittivity: Permittivity not defined in material, defaulting to that of vacuum
WARNING:: GetPermittivity: Permittivity not defined in material, defaulting to that of vacuum
WARNING:: GetPermittivity: Permittivity not defined in material, defaulting to that of vacuum
WARNING:: GetPermittivity: Permittivity not defined in material, defaulting to that of vacuum
WARNING:: GetPermittivity: Permittivity not defined in material, defaulting to that of vacuum
WARNING:: GetPermittivity: Permittivity not defined in material, defaulting to that of vacuum
WARNING:: GetPermittivity: Permittivity not defined in material, defaulting to that of vacuum
WARNING:: GetPermittivity: Permittivity not defined in material, defaulting to that of vacuum
WARNING:: GetPermittivity: Permittivity not defined in material, defaulting to that of vacuum
WARNING:: GetPermittivity: Permittivity not defined in material, defaulting to that of vacuum
WARNING:: GetPermittivity: Permittivity not defined in material, defaulting to that of vacuum
WARNING:: GetPermittivity: Permittivity not defined in material, defaulting to that of vacuum
WARNING:: GetPermittivity: Permittivity not defined in material, defaulting to that of vacuum
WARNING:: GetPermittivity: Permittivity not defined in material, defaulting to that of vacuum
MGDynAssembly: Elapsed REAL time:     7.7795 (s)
EnforceDirichletConditions: Dirichlet conditions enforced for dofs: 34440
SolveWithLinearRestriction: Collection matrix creation time (CPU,REAL):     0.81    0.91 (s)
List_ToListMatrix: Matrix format changed from CRS to List
SplittedMatrix: Elapsed REAL time:     1.8217 (s)
CRS_IncompleteLU: ILU(0) (Real), Performing Factorization:
CRS_IncompleteLU: ILU(0) (Real), NOF nonzeros:   9554946
CRS_IncompleteLU: ILU(0) (Real), filling (%) :        99
CRS_IncompleteLU: ILU(0) (Real), Factorization time (s):     0.23
   gcr:    30  0.1137E-01  0.3718E-02
   gcr:    60  0.4423E-02  0.1534E-02
   gcr:    90  0.4769E-03  0.2127E-03
   gcr:   120  0.2239E-03  0.1391E-04
   gcr:   150  0.8931E-04  0.3028E-04
   gcr:   180  0.1644E-04  0.5937E-05
   gcr:   210  0.3773E-05  0.1251E-06
   gcr:   240  0.2128E-05 -0.1456E-06
   gcr:   270  0.9302E-06  0.1815E-06
   gcr:   300  0.3090E-06  0.8465E-07
   gcr:   330  0.2470E-06  0.2372E-07
   gcr:   360  0.1210E-06  0.3410E-07
   gcr:   390  0.4380E-07  0.7880E-08
   gcr:   420  0.2812E-07  0.1398E-08
   gcr:   450  0.1752E-07  0.3597E-08
ComputeChange: NS (ITER=1) (NRM,RELC): ( 0.30729996E-06  2.0000000     ) :: mgdynamics
WARNING:: SolveEquations: No routine related to solver!
WARNING:: SolveEquations: No routine related to solver!
WARNING:: SolveEquations: No routine related to solver!
WARNING:: SolveEquations: No routine related to solver!
WARNING:: SolveEquations: No routine related to solver!
WARNING:: SolveEquations: No routine related to solver!
WARNING:: SolveEquations: No routine related to solver!
WARNING:: SolveEquations: No routine related to solver!
WARNING:: SolveEquations: No routine related to solver!
WARNING:: SolveEquations: No routine related to solver!
WARNING:: SolveEquations: No routine related to solver!
WARNING:: SolveEquations: No routine related to solver!
WARNING:: SolveEquations: No routine related to solver!
WARNING:: SolveEquations: No routine related to solver!
WARNING:: SolveEquations: No routine related to solver!
WARNING:: SolveEquations: No routine related to solver!
WARNING:: SolveEquations: No routine related to solver!
WARNING:: SolveEquations: No routine related to solver!
WARNING:: SolveEquations: No routine related to solver!
WARNING:: SolveEquations: No routine related to solver!
MagnetoDynamicsCalcFields: ------------------------------
MagnetoDynamicsCalcFields: Computing postprocessed fields
MagnetoDynamicsCalcFields: Using potential variable: av
MagnetoDynamicsCalcFields: Using Piola transformed finite elements
WARNING:: GetPermittivity: Permittivity not defined in material, defaulting to that of vacuum
WARNING:: GetPermittivity: Permittivity not defined in material, defaulting to that of vacuum
WARNING:: GetPermittivity: Permittivity not defined in material, defaulting to that of vacuum
WARNING:: GetPermittivity: Permittivity not defined in material, defaulting to that of vacuum
WARNING:: GetPermittivity: Permittivity not defined in material, defaulting to that of vacuum
WARNING:: GetPermittivity: Permittivity not defined in material, defaulting to that of vacuum
WARNING:: GetPermittivity: Permittivity not defined in material, defaulting to that of vacuum
WARNING:: GetPermittivity: Permittivity not defined in material, defaulting to that of vacuum
WARNING:: GetPermittivity: Permittivity not defined in material, defaulting to that of vacuum
WARNING:: GetPermittivity: Permittivity not defined in material, defaulting to that of vacuum
WARNING:: GetPermittivity: Permittivity not defined in material, defaulting to that of vacuum
WARNING:: GetPermittivity: Permittivity not defined in material, defaulting to that of vacuum
WARNING:: GetPermittivity: Permittivity not defined in material, defaulting to that of vacuum
WARNING:: GetPermittivity: Permittivity not defined in material, defaulting to that of vacuum
WARNING:: GetPermittivity: Permittivity not defined in material, defaulting to that of vacuum
WARNING:: GetPermittivity: Permittivity not defined in material, defaulting to that of vacuum
WARNING:: GetPermittivity: Permittivity not defined in material, defaulting to that of vacuum
WARNING:: GetPermittivity: Permittivity not defined in material, defaulting to that of vacuum
WARNING:: GetPermittivity: Permittivity not defined in material, defaulting to that of vacuum
WARNING:: GetPermittivity: Permittivity not defined in material, defaulting to that of vacuum
MagnetoDynamicsCalcFields: Eddy current power:    9.843149E+01
MagnetoDynamicsCalcFields: ElectroMagnetic Field Energy:    2.125954E+00
ReloadInputFile: Reloading input file
LoadInputFile: Loading input file:
MAIN: *** Elmer Solver: ALL DONE ***
ReleaseMeshFaceTables: Releasing number of faces: 528314
SOLVER TOTAL TIME(CPU,REAL):       167.63      169.15
ELMER SOLVER FINISHED AT: 2026/05/01 19:51:27

===================================================================================
=   BAD TERMINATION OF ONE OF YOUR APPLICATION PROCESSES
=   PID 366977 RUNNING AT nukwa-08.cnca
=   EXIT CODE: 9
=   CLEANING UP REMAINING PROCESSES
=   YOU CAN IGNORE THE BELOW CLEANUP MESSAGES
===================================================================================
YOUR APPLICATION TERMINATED WITH THE EXIT STRING: Killed (signal 9)
This typically refers to a problem with your application.
Please see the FAQ page for debugging suggestions
